<?xml version="1.0" encoding="UTF-8"?>

<!-- generated on Sun Jun 13 10:55:15 2021 by Eclipse SUMO duarouter Version v1_7_0+1095-7111e26d53
<configuration xmlns:xsi="http://www.w3.org/2001/XMLSchema-instance" xsi:noNamespaceSchemaLocation="http://sumo.dlr.de/xsd/duarouterConfiguration.xsd">

    <input>
        <net-file value="networks/cross5_LFR_exits.net.xml"/>
        <additional-files value="demands/cyclist.type.xml"/>
        <route-files value="demands/cyclists.rou.xml"/>
    </input>

    <output>
        <output-file value="demands/cyclists.rou.xml.tmp"/>
        <write-trips value="true"/>
    </output>

    <time>
        <begin value="0"/>
        <end value="3600"/>
    </time>

    <report>
        <no-warnings value="true"/>
        <ignore-errors value="true"/>
        <no-step-log value="true"/>
    </report>

</configuration>
-->

<routes xmlns:xsi="http://www.w3.org/2001/XMLSchema-instance" xsi:noNamespaceSchemaLocation="http://sumo.dlr.de/xsd/routes_file.xsd">
    <vType id="cyclist" vClass="bicycle"/>
    <trip id="c2" type="cyclist" depart="10.00" from="WC" to="CS"/>
    <trip id="c5" type="cyclist" depart="15.00" from="NC" to="CW"/>
    <trip id="c12" type="cyclist" depart="46.00" from="SS" to="CN"/>
    <trip id="c16" type="cyclist" depart="83.00" from="SC" to="CE"/>
    <trip id="c17" type="cyclist" depart="87.00" from="NC" to="CS"/>
    <trip id="c21" type="cyclist" depart="107.00" from="EE" to="EC"/>
    <trip id="c23" type="cyclist" depart="108.00" from="SS" to="SC"/>
    <trip id="c25" type="cyclist" depart="117.00" from="NN" to="NC"/>
    <trip id="c28" type="cyclist" depart="138.00" from="EC" to="EC"/>
    <trip id="c31" type="cyclist" depart="151.00" from="EE" to="CN"/>
    <trip id="c33" type="cyclist" depart="160.00" from="EC" to="CN"/>
    <trip id="c36" type="cyclist" depart="171.00" from="NC" to="CW"/>
    <trip id="c42" type="cyclist" depart="205.00" from="EE" to="CN"/>
    <trip id="c46" type="cyclist" depart="224.00" from="WW" to="CE"/>
    <trip id="c50" type="cyclist" depart="265.00" from="EC" to="CN"/>
    <trip id="c57" type="cyclist" depart="292.00" from="EE" to="CN"/>
    <trip id="c60" type="cyclist" depart="309.00" from="WC" to="CE"/>
    <trip id="c64" type="cyclist" depart="320.00" from="EC" to="EC"/>
    <trip id="c69" type="cyclist" depart="349.00" from="WW" to="CE"/>
    <trip id="c70" type="cyclist" depart="357.00" from="WC" to="CS"/>
    <trip id="c73" type="cyclist" depart="382.00" from="NC" to="CS"/>
    <trip id="c75" type="cyclist" depart="386.00" from="NN" to="NC"/>
    <trip id="c76" type="cyclist" depart="386.00" from="SC" to="CE"/>
    <trip id="c77" type="cyclist" depart="409.00" from="WC" to="CE"/>
    <trip id="c78" type="cyclist" depart="411.00" from="EE" to="CW"/>
    <trip id="c79" type="cyclist" depart="411.00" from="EC" to="EC"/>
    <trip id="c80" type="cyclist" depart="418.00" from="SS" to="SC"/>
    <trip id="c82" type="cyclist" depart="426.00" from="NC" to="CS"/>
    <trip id="c83" type="cyclist" depart="429.00" from="NN" to="CS"/>
    <trip id="c87" type="cyclist" depart="458.00" from="WC" to="CE"/>
    <trip id="c94" type="cyclist" depart="501.00" from="EE" to="CN"/>
    <trip id="c97" type="cyclist" depart="515.00" from="NN" to="NC"/>
    <trip id="c103" type="cyclist" depart="547.00" from="EE" to="CN"/>
    <trip id="c104" type="cyclist" depart="551.00" from="WC" to="WC"/>
    <trip id="c109" type="cyclist" depart="567.00" from="WW" to="CS"/>
    <trip id="c114" type="cyclist" depart="584.00" from="SC" to="CN"/>
    <trip id="c115" type="cyclist" depart="591.00" from="NC" to="CW"/>
    <trip id="c117" type="cyclist" depart="600.00" from="SC" to="CE"/>
    <trip id="c122" type="cyclist" depart="620.00" from="NN" to="CW"/>
    <trip id="c125" type="cyclist" depart="659.00" from="WW" to="WC"/>
    <trip id="c126" type="cyclist" depart="662.00" from="EC" to="EC"/>
    <trip id="c127" type="cyclist" depart="668.00" from="EC" to="CN"/>
    <trip id="c129" type="cyclist" depart="672.00" from="NN" to="CW"/>
    <trip id="c132" type="cyclist" depart="693.00" from="NC" to="CW"/>
    <trip id="c136" type="cyclist" depart="716.00" from="SC" to="CN"/>
    <trip id="c142" type="cyclist" depart="735.00" from="WC" to="WC"/>
    <trip id="c143" type="cyclist" depart="748.00" from="WW" to="CS"/>
    <trip id="c144" type="cyclist" depart="750.00" from="EE" to="EC"/>
    <trip id="c145" type="cyclist" depart="753.00" from="WC" to="CE"/>
    <trip id="c147" type="cyclist" depart="762.00" from="EE" to="CN"/>
    <trip id="c149" type="cyclist" depart="770.00" from="NN" to="NC"/>
    <trip id="c150" type="cyclist" depart="773.00" from="SS" to="CN"/>
    <trip id="c152" type="cyclist" depart="777.00" from="EE" to="CW"/>
    <trip id="c155" type="cyclist" depart="791.00" from="EE" to="EC"/>
    <trip id="c165" type="cyclist" depart="820.00" from="WW" to="CS"/>
    <trip id="c167" type="cyclist" depart="829.00" from="NC" to="CW"/>
    <trip id="c168" type="cyclist" depart="830.00" from="NC" to="NC"/>
    <trip id="c169" type="cyclist" depart="835.00" from="NN" to="CS"/>
    <trip id="c170" type="cyclist" depart="840.00" from="NN" to="NC"/>
    <trip id="c171" type="cyclist" depart="842.00" from="SS" to="CE"/>
    <trip id="c174" type="cyclist" depart="846.00" from="SC" to="CE"/>
    <trip id="c176" type="cyclist" depart="853.00" from="EC" to="EC"/>
    <trip id="c182" type="cyclist" depart="886.00" from="EC" to="EC"/>
    <trip id="c185" type="cyclist" depart="896.00" from="SS" to="SC"/>
    <trip id="c186" type="cyclist" depart="898.00" from="WW" to="CS"/>
    <trip id="c188" type="cyclist" depart="906.00" from="EE" to="CN"/>
    <trip id="c189" type="cyclist" depart="906.00" from="EE" to="CW"/>
    <trip id="c190" type="cyclist" depart="906.00" from="SS" to="CN"/>
    <trip id="c192" type="cyclist" depart="914.00" from="WW" to="WC"/>
    <trip id="c193" type="cyclist" depart="916.00" from="EC" to="CN"/>
    <trip id="c195" type="cyclist" depart="922.00" from="WC" to="CS"/>
    <trip id="c198" type="cyclist" depart="932.00" from="NC" to="NC"/>
    <trip id="c201" type="cyclist" depart="943.00" from="SC" to="CE"/>
    <trip id="c202" type="cyclist" depart="943.00" from="WW" to="CE"/>
    <trip id="c210" type="cyclist" depart="1024.00" from="EE" to="CW"/>
    <trip id="c211" type="cyclist" depart="1027.00" from="EC" to="CW"/>
    <trip id="c213" type="cyclist" depart="1040.00" from="NC" to="NC"/>
    <trip id="c218" type="cyclist" depart="1065.00" from="SS" to="SC"/>
    <trip id="c222" type="cyclist" depart="1083.00" from="SC" to="SC"/>
    <trip id="c227" type="cyclist" depart="1093.00" from="EE" to="EC"/>
    <trip id="c228" type="cyclist" depart="1096.00" from="SC" to="CN"/>
    <trip id="c229" type="cyclist" depart="1100.00" from="NC" to="CS"/>
    <trip id="c230" type="cyclist" depart="1106.00" from="EE" to="CW"/>
    <trip id="c232" type="cyclist" depart="1109.00" from="SS" to="CE"/>
    <trip id="c234" type="cyclist" depart="1115.00" from="EE" to="CN"/>
    <trip id="c236" type="cyclist" depart="1147.00" from="EC" to="CW"/>
    <trip id="c237" type="cyclist" depart="1151.00" from="SS" to="CE"/>
    <trip id="c238" type="cyclist" depart="1163.00" from="SC" to="CN"/>
    <trip id="c243" type="cyclist" depart="1183.00" from="EC" to="CN"/>
    <trip id="c244" type="cyclist" depart="1191.00" from="EC" to="CW"/>
    <trip id="c251" type="cyclist" depart="1211.00" from="EE" to="CW"/>
    <trip id="c253" type="cyclist" depart="1221.00" from="SS" to="CN"/>
    <trip id="c254" type="cyclist" depart="1222.00" from="EE" to="EC"/>
    <trip id="c255" type="cyclist" depart="1226.00" from="WW" to="CS"/>
    <trip id="c257" type="cyclist" depart="1232.00" from="WW" to="CS"/>
    <trip id="c259" type="cyclist" depart="1235.00" from="WC" to="WC"/>
    <trip id="c262" type="cyclist" depart="1250.00" from="WC" to="CE"/>
    <trip id="c266" type="cyclist" depart="1289.00" from="EC" to="CN"/>
    <trip id="c269" type="cyclist" depart="1297.00" from="WC" to="WC"/>
    <trip id="c273" type="cyclist" depart="1314.00" from="NC" to="CS"/>
    <trip id="c275" type="cyclist" depart="1325.00" from="EE" to="EC"/>
    <trip id="c276" type="cyclist" depart="1325.00" from="SC" to="CE"/>
    <trip id="c278" type="cyclist" depart="1330.00" from="NC" to="CS"/>
    <trip id="c287" type="cyclist" depart="1374.00" from="WW" to="WC"/>
    <trip id="c288" type="cyclist" depart="1388.00" from="WW" to="CS"/>
    <trip id="c289" type="cyclist" depart="1392.00" from="NC" to="CW"/>
    <trip id="c291" type="cyclist" depart="1399.00" from="EE" to="CW"/>
    <trip id="c295" type="cyclist" depart="1418.00" from="NC" to="NC"/>
    <trip id="c297" type="cyclist" depart="1443.00" from="SS" to="SC"/>
    <trip id="c301" type="cyclist" depart="1467.00" from="WC" to="CS"/>
    <trip id="c303" type="cyclist" depart="1470.00" from="SS" to="CN"/>
    <trip id="c307" type="cyclist" depart="1493.00" from="SS" to="SC"/>
    <trip id="c309" type="cyclist" depart="1515.00" from="WW" to="CS"/>
    <trip id="c312" type="cyclist" depart="1533.00" from="NN" to="CW"/>
    <trip id="c314" type="cyclist" depart="1540.00" from="WW" to="CE"/>
    <trip id="c317" type="cyclist" depart="1549.00" from="SC" to="SC"/>
    <trip id="c320" type="cyclist" depart="1569.00" from="EC" to="CN"/>
    <trip id="c321" type="cyclist" depart="1569.00" from="WW" to="WC"/>
    <trip id="c327" type="cyclist" depart="1586.00" from="EE" to="CN"/>
    <trip id="c329" type="cyclist" depart="1592.00" from="EC" to="EC"/>
    <trip id="c331" type="cyclist" depart="1601.00" from="NN" to="CS"/>
    <trip id="c332" type="cyclist" depart="1603.00" from="WC" to="WC"/>
    <trip id="c333" type="cyclist" depart="1613.00" from="SS" to="CN"/>
    <trip id="c334" type="cyclist" depart="1617.00" from="NC" to="NC"/>
    <trip id="c339" type="cyclist" depart="1625.00" from="NN" to="NC"/>
    <trip id="c344" type="cyclist" depart="1651.00" from="SS" to="CE"/>
    <trip id="c347" type="cyclist" depart="1658.00" from="NN" to="CW"/>
    <trip id="c351" type="cyclist" depart="1676.00" from="NC" to="NC"/>
    <trip id="c352" type="cyclist" depart="1676.00" from="WW" to="CS"/>
    <trip id="c357" type="cyclist" depart="1690.00" from="SS" to="CE"/>
    <trip id="c360" type="cyclist" depart="1711.00" from="SS" to="CN"/>
    <trip id="c364" type="cyclist" depart="1741.00" from="SS" to="SC"/>
    <trip id="c365" type="cyclist" depart="1745.00" from="SC" to="CE"/>
    <trip id="c366" type="cyclist" depart="1746.00" from="SC" to="SC"/>
    <trip id="c369" type="cyclist" depart="1766.00" from="SS" to="CE"/>
    <trip id="c376" type="cyclist" depart="1802.00" from="WW" to="WC"/>
    <trip id="c379" type="cyclist" depart="1810.00" from="SS" to="CE"/>
    <trip id="c381" type="cyclist" depart="1816.00" from="SC" to="CE"/>
    <trip id="c383" type="cyclist" depart="1836.00" from="NC" to="NC"/>
    <trip id="c384" type="cyclist" depart="1842.00" from="SS" to="CE"/>
    <trip id="c386" type="cyclist" depart="1843.00" from="EE" to="CN"/>
    <trip id="c387" type="cyclist" depart="1843.00" from="NN" to="CW"/>
    <trip id="c388" type="cyclist" depart="1845.00" from="WW" to="CS"/>
    <trip id="c392" type="cyclist" depart="1867.00" from="WC" to="WC"/>
    <trip id="c394" type="cyclist" depart="1883.00" from="WC" to="WC"/>
    <trip id="c395" type="cyclist" depart="1883.00" from="EE" to="CW"/>
    <trip id="c400" type="cyclist" depart="1895.00" from="EC" to="EC"/>
    <trip id="c405" type="cyclist" depart="1932.00" from="NN" to="CS"/>
    <trip id="c412" type="cyclist" depart="1957.00" from="SS" to="CN"/>
    <trip id="c417" type="cyclist" depart="1987.00" from="WW" to="CE"/>
    <trip id="c420" type="cyclist" depart="2008.00" from="WW" to="CE"/>
    <trip id="c421" type="cyclist" depart="2012.00" from="SC" to="CE"/>
    <trip id="c426" type="cyclist" depart="2030.00" from="SS" to="SC"/>
    <trip id="c427" type="cyclist" depart="2035.00" from="NN" to="NC"/>
    <trip id="c429" type="cyclist" depart="2038.00" from="SC" to="SC"/>
    <trip id="c430" type="cyclist" depart="2050.00" from="EE" to="CN"/>
    <trip id="c432" type="cyclist" depart="2057.00" from="SC" to="SC"/>
    <trip id="c435" type="cyclist" depart="2082.00" from="WC" to="CE"/>
    <trip id="c448" type="cyclist" depart="2137.00" from="EE" to="CN"/>
    <trip id="c449" type="cyclist" depart="2140.00" from="EE" to="CN"/>
    <trip id="c451" type="cyclist" depart="2162.00" from="WC" to="WC"/>
    <trip id="c458" type="cyclist" depart="2205.00" from="WW" to="CS"/>
    <trip id="c459" type="cyclist" depart="2213.00" from="WW" to="WC"/>
    <trip id="c460" type="cyclist" depart="2213.00" from="NN" to="NC"/>
    <trip id="c462" type="cyclist" depart="2215.00" from="SS" to="SC"/>
    <trip id="c464" type="cyclist" depart="2222.00" from="NC" to="CW"/>
    <trip id="c466" type="cyclist" depart="2238.00" from="EC" to="EC"/>
    <trip id="c470" type="cyclist" depart="2267.00" from="NN" to="NC"/>
    <trip id="c471" type="cyclist" depart="2267.00" from="SC" to="SC"/>
    <trip id="c473" type="cyclist" depart="2275.00" from="NC" to="CW"/>
    <trip id="c476" type="cyclist" depart="2288.00" from="WC" to="CE"/>
    <trip id="c482" type="cyclist" depart="2317.00" from="EE" to="EC"/>
    <trip id="c487" type="cyclist" depart="2382.00" from="NN" to="CS"/>
    <trip id="c489" type="cyclist" depart="2396.00" from="EC" to="CN"/>
    <trip id="c490" type="cyclist" depart="2400.00" from="WC" to="WC"/>
    <trip id="c493" type="cyclist" depart="2415.00" from="WC" to="CS"/>
    <trip id="c499" type="cyclist" depart="2433.00" from="SS" to="CN"/>
    <trip id="c501" type="cyclist" depart="2460.00" from="NN" to="CW"/>
    <trip id="c502" type="cyclist" depart="2471.00" from="EC" to="CN"/>
    <trip id="c505" type="cyclist" depart="2502.00" from="EE" to="EC"/>
    <trip id="c506" type="cyclist" depart="2506.00" from="NN" to="NC"/>
    <trip id="c507" type="cyclist" depart="2509.00" from="WW" to="CE"/>
    <trip id="c509" type="cyclist" depart="2521.00" from="EC" to="CW"/>
    <trip id="c511" type="cyclist" depart="2530.00" from="WW" to="CE"/>
    <trip id="c513" type="cyclist" depart="2540.00" from="SS" to="CE"/>
    <trip id="c515" type="cyclist" depart="2546.00" from="SC" to="CN"/>
    <trip id="c519" type="cyclist" depart="2599.00" from="SC" to="SC"/>
    <trip id="c522" type="cyclist" depart="2629.00" from="WW" to="CE"/>
    <trip id="c523" type="cyclist" depart="2630.00" from="WW" to="CE"/>
    <trip id="c526" type="cyclist" depart="2643.00" from="EE" to="CN"/>
    <trip id="c527" type="cyclist" depart="2645.00" from="EC" to="CN"/>
    <trip id="c544" type="cyclist" depart="2717.00" from="EC" to="CW"/>
    <trip id="c545" type="cyclist" depart="2717.00" from="NN" to="NC"/>
    <trip id="c549" type="cyclist" depart="2733.00" from="SS" to="CN"/>
    <trip id="c551" type="cyclist" depart="2739.00" from="EE" to="CN"/>
    <trip id="c552" type="cyclist" depart="2741.00" from="WW" to="CS"/>
    <trip id="c554" type="cyclist" depart="2759.00" from="NC" to="NC"/>
    <trip id="c557" type="cyclist" depart="2767.00" from="SS" to="SC"/>
    <trip id="c559" type="cyclist" depart="2776.00" from="SC" to="CN"/>
    <trip id="c572" type="cyclist" depart="2863.00" from="NC" to="CS"/>
    <trip id="c574" type="cyclist" depart="2873.00" from="EC" to="CW"/>
    <trip id="c575" type="cyclist" depart="2875.00" from="NN" to="NC"/>
    <trip id="c576" type="cyclist" depart="2890.00" from="NN" to="NC"/>
    <trip id="c577" type="cyclist" depart="2892.00" from="WC" to="CS"/>
    <trip id="c578" type="cyclist" depart="2898.00" from="WC" to="WC"/>
    <trip id="c579" type="cyclist" depart="2909.00" from="WW" to="CS"/>
    <trip id="c580" type="cyclist" depart="2917.00" from="WC" to="WC"/>
    <trip id="c586" type="cyclist" depart="2946.00" from="SS" to="CE"/>
    <trip id="c587" type="cyclist" depart="2947.00" from="EC" to="CW"/>
    <trip id="c588" type="cyclist" depart="2948.00" from="SC" to="CN"/>
    <trip id="c599" type="cyclist" depart="3007.00" from="SS" to="CE"/>
    <trip id="c600" type="cyclist" depart="3015.00" from="EE" to="CN"/>
    <trip id="c601" type="cyclist" depart="3030.00" from="NC" to="CS"/>
    <trip id="c604" type="cyclist" depart="3043.00" from="NN" to="CS"/>
    <trip id="c610" type="cyclist" depart="3064.00" from="SC" to="CN"/>
    <trip id="c612" type="cyclist" depart="3075.00" from="WC" to="WC"/>
    <trip id="c613" type="cyclist" depart="3084.00" from="NN" to="NC"/>
    <trip id="c614" type="cyclist" depart="3086.00" from="SC" to="SC"/>
    <trip id="c616" type="cyclist" depart="3088.00" from="NC" to="CW"/>
    <trip id="c619" type="cyclist" depart="3112.00" from="NC" to="CS"/>
    <trip id="c626" type="cyclist" depart="3135.00" from="SC" to="CN"/>
    <trip id="c632" type="cyclist" depart="3153.00" from="NN" to="NC"/>
    <trip id="c643" type="cyclist" depart="3219.00" from="WC" to="CE"/>
    <trip id="c645" type="cyclist" depart="3227.00" from="EE" to="CW"/>
    <trip id="c650" type="cyclist" depart="3264.00" from="WW" to="CE"/>
    <trip id="c652" type="cyclist" depart="3291.00" from="EC" to="CN"/>
    <trip id="c656" type="cyclist" depart="3316.00" from="NC" to="CW"/>
    <trip id="c661" type="cyclist" depart="3345.00" from="NC" to="CW"/>
    <trip id="c663" type="cyclist" depart="3355.00" from="EE" to="EC"/>
    <trip id="c666" type="cyclist" depart="3363.00" from="SS" to="CN"/>
    <trip id="c667" type="cyclist" depart="3365.00" from="NN" to="CS"/>
    <trip id="c669" type="cyclist" depart="3379.00" from="EE" to="EC"/>
    <trip id="c670" type="cyclist" depart="3380.00" from="NC" to="CW"/>
    <trip id="c671" type="cyclist" depart="3389.00" from="WC" to="CE"/>
    <trip id="c672" type="cyclist" depart="3408.00" from="WW" to="WC"/>
    <trip id="c677" type="cyclist" depart="3426.00" from="SS" to="CE"/>
    <trip id="c678" type="cyclist" depart="3432.00" from="SS" to="CE"/>
    <trip id="c681" type="cyclist" depart="3448.00" from="SC" to="SC"/>
    <trip id="c682" type="cyclist" depart="3455.00" from="WW" to="WC"/>
    <trip id="c684" type="cyclist" depart="3458.00" from="SC" to="CE"/>
    <trip id="c687" type="cyclist" depart="3495.00" from="EC" to="CW"/>
    <trip id="c693" type="cyclist" depart="3515.00" from="WC" to="WC"/>
    <trip id="c700" type="cyclist" depart="3534.00" from="NN" to="NC"/>
    <trip id="c702" type="cyclist" depart="3536.00" from="WW" to="WC"/>
    <trip id="c704" type="cyclist" depart="3546.00" from="EE" to="CN"/>
    <trip id="c705" type="cyclist" depart="3547.00" from="NC" to="NC"/>
    <trip id="c706" type="cyclist" depart="3550.00" from="WC" to="WC"/>
    <trip id="c708" type="cyclist" depart="3551.00" from="NN" to="CW"/>
    <trip id="c709" type="cyclist" depart="3553.00" from="SS" to="SC"/>
    <trip id="c712" type="cyclist" depart="3569.00" from="EC" to="CW"/>
    <trip id="c713" type="cyclist" depart="3571.00" from="SS" to="CE"/>
    <trip id="c714" type="cyclist" depart="3576.00" from="NC" to="CW"/>
    <trip id="c716" type="cyclist" depart="3582.00" from="WC" to="CS"/>
</routes>
