<?xml version="1.0" encoding="UTF-8"?>

<!-- generated on Thu Mar  4 21:52:29 2021 by Eclipse SUMO duarouter Version v1_7_0+1095-7111e26d53
<configuration xmlns:xsi="http://www.w3.org/2001/XMLSchema-instance" xsi:noNamespaceSchemaLocation="http://sumo.dlr.de/xsd/duarouterConfiguration.xsd">

    <input>
        <net-file value="cross4.net.xml"/>
        <route-files value="demands/cyclists.rou.xml"/>
    </input>

    <output>
        <output-file value="demands/cyclists.rou.xml.tmp"/>
        <write-trips value="true"/>
    </output>

    <time>
        <begin value="0"/>
        <end value="3600"/>
    </time>

    <report>
        <no-warnings value="true"/>
        <ignore-errors value="true"/>
        <no-step-log value="true"/>
    </report>

</configuration>
-->

<routes xmlns:xsi="http://www.w3.org/2001/XMLSchema-instance" xsi:noNamespaceSchemaLocation="http://sumo.dlr.de/xsd/routes_file.xsd">
    <vType id="bicycle" vClass="bicycle"/>
    <trip id="0" type="bicycle" depart="0.00" from="SC" to="CE"/>
    <trip id="3" type="bicycle" depart="3.00" from="WC" to="CE"/>
    <trip id="9" type="bicycle" depart="9.00" from="WC" to="CE"/>
    <trip id="10" type="bicycle" depart="10.00" from="WC" to="CS"/>
    <trip id="14" type="bicycle" depart="14.00" from="WC" to="CS"/>
    <trip id="15" type="bicycle" depart="15.00" from="WC" to="CS"/>
    <trip id="17" type="bicycle" depart="17.00" from="NC" to="CS"/>
    <trip id="18" type="bicycle" depart="18.00" from="WC" to="CS"/>
    <trip id="19" type="bicycle" depart="19.00" from="WC" to="CS"/>
    <trip id="20" type="bicycle" depart="20.00" from="SC" to="CE"/>
    <trip id="21" type="bicycle" depart="21.00" from="EC" to="CN"/>
    <trip id="23" type="bicycle" depart="23.00" from="EC" to="CN"/>
    <trip id="24" type="bicycle" depart="24.00" from="SC" to="CN"/>
    <trip id="26" type="bicycle" depart="26.00" from="NC" to="CW"/>
    <trip id="29" type="bicycle" depart="29.00" from="EC" to="CN"/>
    <trip id="30" type="bicycle" depart="30.00" from="WC" to="CS"/>
    <trip id="35" type="bicycle" depart="35.00" from="EC" to="CW"/>
    <trip id="37" type="bicycle" depart="37.00" from="SC" to="CN"/>
    <trip id="40" type="bicycle" depart="40.00" from="SC" to="CN"/>
    <trip id="43" type="bicycle" depart="43.00" from="WC" to="CS"/>
    <trip id="47" type="bicycle" depart="47.00" from="EC" to="CN"/>
    <trip id="48" type="bicycle" depart="48.00" from="WC" to="CS"/>
    <trip id="52" type="bicycle" depart="52.00" from="NC" to="CS"/>
    <trip id="53" type="bicycle" depart="53.00" from="EC" to="CN"/>
    <trip id="54" type="bicycle" depart="54.00" from="NC" to="CW"/>
    <trip id="56" type="bicycle" depart="56.00" from="SC" to="CE"/>
    <trip id="58" type="bicycle" depart="58.00" from="NC" to="CS"/>
    <trip id="59" type="bicycle" depart="59.00" from="SC" to="CE"/>
    <trip id="60" type="bicycle" depart="60.00" from="WC" to="CS"/>
    <trip id="61" type="bicycle" depart="61.00" from="WC" to="CS"/>
    <trip id="62" type="bicycle" depart="62.00" from="EC" to="CN"/>
    <trip id="63" type="bicycle" depart="63.00" from="EC" to="CW"/>
    <trip id="67" type="bicycle" depart="67.00" from="EC" to="CN"/>
    <trip id="68" type="bicycle" depart="68.00" from="EC" to="CW"/>
    <trip id="69" type="bicycle" depart="69.00" from="WC" to="CE"/>
    <trip id="70" type="bicycle" depart="70.00" from="NC" to="CS"/>
    <trip id="71" type="bicycle" depart="71.00" from="NC" to="CW"/>
    <trip id="74" type="bicycle" depart="74.00" from="EC" to="CN"/>
    <trip id="75" type="bicycle" depart="75.00" from="WC" to="CS"/>
    <trip id="76" type="bicycle" depart="76.00" from="NC" to="CS"/>
    <trip id="78" type="bicycle" depart="78.00" from="NC" to="CS"/>
    <trip id="81" type="bicycle" depart="81.00" from="EC" to="CW"/>
    <trip id="82" type="bicycle" depart="82.00" from="WC" to="CE"/>
    <trip id="85" type="bicycle" depart="85.00" from="WC" to="CS"/>
    <trip id="86" type="bicycle" depart="86.00" from="NC" to="CW"/>
    <trip id="87" type="bicycle" depart="87.00" from="WC" to="CE"/>
    <trip id="88" type="bicycle" depart="88.00" from="EC" to="CN"/>
    <trip id="91" type="bicycle" depart="91.00" from="WC" to="CE"/>
    <trip id="93" type="bicycle" depart="93.00" from="WC" to="CE"/>
    <trip id="94" type="bicycle" depart="94.00" from="EC" to="CN"/>
    <trip id="96" type="bicycle" depart="96.00" from="EC" to="CW"/>
    <trip id="97" type="bicycle" depart="97.00" from="NC" to="CW"/>
    <trip id="98" type="bicycle" depart="98.00" from="SC" to="CE"/>
    <trip id="101" type="bicycle" depart="101.00" from="WC" to="CE"/>
    <trip id="104" type="bicycle" depart="104.00" from="NC" to="CW"/>
    <trip id="105" type="bicycle" depart="105.00" from="NC" to="CW"/>
    <trip id="109" type="bicycle" depart="109.00" from="EC" to="CN"/>
    <trip id="110" type="bicycle" depart="110.00" from="WC" to="CS"/>
    <trip id="114" type="bicycle" depart="114.00" from="EC" to="CW"/>
    <trip id="118" type="bicycle" depart="118.00" from="WC" to="CE"/>
    <trip id="120" type="bicycle" depart="120.00" from="NC" to="CS"/>
    <trip id="123" type="bicycle" depart="123.00" from="EC" to="CN"/>
    <trip id="124" type="bicycle" depart="124.00" from="SC" to="CN"/>
    <trip id="125" type="bicycle" depart="125.00" from="NC" to="CW"/>
    <trip id="126" type="bicycle" depart="126.00" from="EC" to="CN"/>
    <trip id="129" type="bicycle" depart="129.00" from="NC" to="CW"/>
    <trip id="132" type="bicycle" depart="132.00" from="WC" to="CS"/>
    <trip id="134" type="bicycle" depart="134.00" from="SC" to="CE"/>
    <trip id="139" type="bicycle" depart="139.00" from="NC" to="CS"/>
    <trip id="140" type="bicycle" depart="140.00" from="SC" to="CE"/>
    <trip id="141" type="bicycle" depart="141.00" from="SC" to="CN"/>
    <trip id="142" type="bicycle" depart="142.00" from="NC" to="CW"/>
    <trip id="143" type="bicycle" depart="143.00" from="WC" to="CE"/>
    <trip id="145" type="bicycle" depart="145.00" from="EC" to="CW"/>
    <trip id="146" type="bicycle" depart="146.00" from="SC" to="CN"/>
    <trip id="149" type="bicycle" depart="149.00" from="EC" to="CW"/>
    <trip id="150" type="bicycle" depart="150.00" from="WC" to="CS"/>
    <trip id="151" type="bicycle" depart="151.00" from="WC" to="CS"/>
    <trip id="153" type="bicycle" depart="153.00" from="NC" to="CW"/>
    <trip id="155" type="bicycle" depart="155.00" from="WC" to="CE"/>
    <trip id="158" type="bicycle" depart="158.00" from="NC" to="CS"/>
    <trip id="159" type="bicycle" depart="159.00" from="EC" to="CW"/>
    <trip id="163" type="bicycle" depart="163.00" from="NC" to="CW"/>
    <trip id="166" type="bicycle" depart="166.00" from="WC" to="CE"/>
    <trip id="168" type="bicycle" depart="168.00" from="EC" to="CW"/>
    <trip id="170" type="bicycle" depart="170.00" from="WC" to="CE"/>
    <trip id="172" type="bicycle" depart="172.00" from="NC" to="CW"/>
    <trip id="174" type="bicycle" depart="174.00" from="SC" to="CN"/>
    <trip id="175" type="bicycle" depart="175.00" from="WC" to="CS"/>
    <trip id="176" type="bicycle" depart="176.00" from="WC" to="CE"/>
    <trip id="177" type="bicycle" depart="177.00" from="WC" to="CE"/>
    <trip id="179" type="bicycle" depart="179.00" from="EC" to="CN"/>
    <trip id="180" type="bicycle" depart="180.00" from="SC" to="CN"/>
    <trip id="182" type="bicycle" depart="182.00" from="NC" to="CS"/>
    <trip id="183" type="bicycle" depart="183.00" from="NC" to="CS"/>
    <trip id="184" type="bicycle" depart="184.00" from="EC" to="CW"/>
    <trip id="188" type="bicycle" depart="188.00" from="SC" to="CN"/>
    <trip id="189" type="bicycle" depart="189.00" from="NC" to="CW"/>
    <trip id="190" type="bicycle" depart="190.00" from="SC" to="CN"/>
    <trip id="193" type="bicycle" depart="193.00" from="EC" to="CN"/>
    <trip id="194" type="bicycle" depart="194.00" from="WC" to="CS"/>
    <trip id="195" type="bicycle" depart="195.00" from="WC" to="CS"/>
    <trip id="196" type="bicycle" depart="196.00" from="NC" to="CS"/>
    <trip id="197" type="bicycle" depart="197.00" from="EC" to="CN"/>
    <trip id="198" type="bicycle" depart="198.00" from="NC" to="CS"/>
    <trip id="199" type="bicycle" depart="199.00" from="SC" to="CN"/>
    <trip id="201" type="bicycle" depart="201.00" from="NC" to="CW"/>
    <trip id="202" type="bicycle" depart="202.00" from="WC" to="CE"/>
    <trip id="204" type="bicycle" depart="204.00" from="SC" to="CN"/>
    <trip id="206" type="bicycle" depart="206.00" from="SC" to="CE"/>
    <trip id="208" type="bicycle" depart="208.00" from="EC" to="CN"/>
    <trip id="209" type="bicycle" depart="209.00" from="WC" to="CE"/>
    <trip id="210" type="bicycle" depart="210.00" from="NC" to="CS"/>
    <trip id="213" type="bicycle" depart="213.00" from="SC" to="CE"/>
    <trip id="215" type="bicycle" depart="215.00" from="EC" to="CN"/>
    <trip id="216" type="bicycle" depart="216.00" from="EC" to="CW"/>
    <trip id="217" type="bicycle" depart="217.00" from="SC" to="CE"/>
    <trip id="218" type="bicycle" depart="218.00" from="EC" to="CW"/>
    <trip id="219" type="bicycle" depart="219.00" from="NC" to="CW"/>
    <trip id="222" type="bicycle" depart="222.00" from="WC" to="CS"/>
    <trip id="224" type="bicycle" depart="224.00" from="WC" to="CS"/>
    <trip id="225" type="bicycle" depart="225.00" from="WC" to="CS"/>
    <trip id="228" type="bicycle" depart="228.00" from="WC" to="CS"/>
    <trip id="229" type="bicycle" depart="229.00" from="SC" to="CN"/>
    <trip id="230" type="bicycle" depart="230.00" from="EC" to="CN"/>
    <trip id="232" type="bicycle" depart="232.00" from="SC" to="CE"/>
    <trip id="234" type="bicycle" depart="234.00" from="SC" to="CE"/>
    <trip id="235" type="bicycle" depart="235.00" from="NC" to="CS"/>
    <trip id="237" type="bicycle" depart="237.00" from="NC" to="CW"/>
    <trip id="241" type="bicycle" depart="241.00" from="NC" to="CW"/>
    <trip id="243" type="bicycle" depart="243.00" from="NC" to="CS"/>
    <trip id="247" type="bicycle" depart="247.00" from="NC" to="CS"/>
    <trip id="250" type="bicycle" depart="250.00" from="SC" to="CE"/>
    <trip id="251" type="bicycle" depart="251.00" from="NC" to="CS"/>
    <trip id="253" type="bicycle" depart="253.00" from="EC" to="CN"/>
    <trip id="254" type="bicycle" depart="254.00" from="EC" to="CN"/>
    <trip id="255" type="bicycle" depart="255.00" from="EC" to="CN"/>
    <trip id="263" type="bicycle" depart="263.00" from="WC" to="CE"/>
    <trip id="266" type="bicycle" depart="266.00" from="SC" to="CE"/>
    <trip id="269" type="bicycle" depart="269.00" from="SC" to="CE"/>
    <trip id="272" type="bicycle" depart="272.00" from="NC" to="CS"/>
    <trip id="274" type="bicycle" depart="274.00" from="SC" to="CE"/>
    <trip id="276" type="bicycle" depart="276.00" from="EC" to="CW"/>
    <trip id="277" type="bicycle" depart="277.00" from="WC" to="CS"/>
    <trip id="278" type="bicycle" depart="278.00" from="EC" to="CW"/>
    <trip id="281" type="bicycle" depart="281.00" from="SC" to="CN"/>
    <trip id="283" type="bicycle" depart="283.00" from="EC" to="CW"/>
    <trip id="285" type="bicycle" depart="285.00" from="SC" to="CN"/>
    <trip id="287" type="bicycle" depart="287.00" from="NC" to="CW"/>
    <trip id="288" type="bicycle" depart="288.00" from="SC" to="CN"/>
    <trip id="289" type="bicycle" depart="289.00" from="NC" to="CS"/>
    <trip id="290" type="bicycle" depart="290.00" from="NC" to="CW"/>
    <trip id="291" type="bicycle" depart="291.00" from="WC" to="CE"/>
    <trip id="292" type="bicycle" depart="292.00" from="WC" to="CE"/>
    <trip id="293" type="bicycle" depart="293.00" from="NC" to="CS"/>
    <trip id="295" type="bicycle" depart="295.00" from="WC" to="CE"/>
    <trip id="296" type="bicycle" depart="296.00" from="EC" to="CW"/>
    <trip id="297" type="bicycle" depart="297.00" from="NC" to="CW"/>
    <trip id="298" type="bicycle" depart="298.00" from="SC" to="CN"/>
    <trip id="299" type="bicycle" depart="299.00" from="EC" to="CW"/>
    <trip id="301" type="bicycle" depart="301.00" from="NC" to="CW"/>
    <trip id="303" type="bicycle" depart="303.00" from="NC" to="CW"/>
    <trip id="305" type="bicycle" depart="305.00" from="SC" to="CN"/>
    <trip id="306" type="bicycle" depart="306.00" from="SC" to="CN"/>
    <trip id="307" type="bicycle" depart="307.00" from="SC" to="CN"/>
    <trip id="308" type="bicycle" depart="308.00" from="SC" to="CN"/>
    <trip id="309" type="bicycle" depart="309.00" from="SC" to="CN"/>
    <trip id="314" type="bicycle" depart="314.00" from="NC" to="CS"/>
    <trip id="315" type="bicycle" depart="315.00" from="WC" to="CS"/>
    <trip id="319" type="bicycle" depart="319.00" from="SC" to="CN"/>
    <trip id="320" type="bicycle" depart="320.00" from="WC" to="CS"/>
    <trip id="321" type="bicycle" depart="321.00" from="SC" to="CE"/>
    <trip id="323" type="bicycle" depart="323.00" from="WC" to="CS"/>
    <trip id="330" type="bicycle" depart="330.00" from="SC" to="CN"/>
    <trip id="331" type="bicycle" depart="331.00" from="WC" to="CE"/>
    <trip id="332" type="bicycle" depart="332.00" from="WC" to="CS"/>
    <trip id="333" type="bicycle" depart="333.00" from="WC" to="CE"/>
    <trip id="334" type="bicycle" depart="334.00" from="SC" to="CN"/>
    <trip id="335" type="bicycle" depart="335.00" from="NC" to="CW"/>
    <trip id="340" type="bicycle" depart="340.00" from="SC" to="CE"/>
    <trip id="342" type="bicycle" depart="342.00" from="EC" to="CN"/>
    <trip id="343" type="bicycle" depart="343.00" from="SC" to="CN"/>
    <trip id="345" type="bicycle" depart="345.00" from="SC" to="CN"/>
    <trip id="347" type="bicycle" depart="347.00" from="WC" to="CS"/>
    <trip id="349" type="bicycle" depart="349.00" from="NC" to="CS"/>
    <trip id="351" type="bicycle" depart="351.00" from="WC" to="CE"/>
    <trip id="352" type="bicycle" depart="352.00" from="EC" to="CN"/>
    <trip id="356" type="bicycle" depart="356.00" from="WC" to="CS"/>
    <trip id="358" type="bicycle" depart="358.00" from="EC" to="CN"/>
    <trip id="360" type="bicycle" depart="360.00" from="EC" to="CW"/>
    <trip id="361" type="bicycle" depart="361.00" from="WC" to="CS"/>
    <trip id="363" type="bicycle" depart="363.00" from="SC" to="CN"/>
    <trip id="364" type="bicycle" depart="364.00" from="EC" to="CW"/>
    <trip id="365" type="bicycle" depart="365.00" from="NC" to="CS"/>
    <trip id="366" type="bicycle" depart="366.00" from="WC" to="CE"/>
    <trip id="371" type="bicycle" depart="371.00" from="NC" to="CS"/>
    <trip id="372" type="bicycle" depart="372.00" from="NC" to="CW"/>
    <trip id="373" type="bicycle" depart="373.00" from="WC" to="CS"/>
    <trip id="375" type="bicycle" depart="375.00" from="NC" to="CW"/>
    <trip id="376" type="bicycle" depart="376.00" from="NC" to="CS"/>
    <trip id="377" type="bicycle" depart="377.00" from="WC" to="CS"/>
    <trip id="378" type="bicycle" depart="378.00" from="SC" to="CN"/>
    <trip id="379" type="bicycle" depart="379.00" from="EC" to="CN"/>
    <trip id="380" type="bicycle" depart="380.00" from="WC" to="CS"/>
    <trip id="381" type="bicycle" depart="381.00" from="WC" to="CE"/>
    <trip id="383" type="bicycle" depart="383.00" from="NC" to="CS"/>
    <trip id="384" type="bicycle" depart="384.00" from="EC" to="CW"/>
    <trip id="385" type="bicycle" depart="385.00" from="SC" to="CE"/>
    <trip id="387" type="bicycle" depart="387.00" from="SC" to="CE"/>
    <trip id="392" type="bicycle" depart="392.00" from="NC" to="CW"/>
    <trip id="393" type="bicycle" depart="393.00" from="WC" to="CE"/>
    <trip id="394" type="bicycle" depart="394.00" from="SC" to="CN"/>
    <trip id="395" type="bicycle" depart="395.00" from="WC" to="CS"/>
    <trip id="397" type="bicycle" depart="397.00" from="NC" to="CW"/>
    <trip id="398" type="bicycle" depart="398.00" from="NC" to="CW"/>
    <trip id="403" type="bicycle" depart="403.00" from="SC" to="CN"/>
    <trip id="407" type="bicycle" depart="407.00" from="SC" to="CE"/>
    <trip id="408" type="bicycle" depart="408.00" from="WC" to="CE"/>
    <trip id="416" type="bicycle" depart="416.00" from="SC" to="CN"/>
    <trip id="417" type="bicycle" depart="417.00" from="SC" to="CN"/>
    <trip id="418" type="bicycle" depart="418.00" from="SC" to="CE"/>
    <trip id="419" type="bicycle" depart="419.00" from="NC" to="CW"/>
    <trip id="420" type="bicycle" depart="420.00" from="NC" to="CS"/>
    <trip id="425" type="bicycle" depart="425.00" from="WC" to="CE"/>
    <trip id="428" type="bicycle" depart="428.00" from="SC" to="CN"/>
    <trip id="432" type="bicycle" depart="432.00" from="EC" to="CW"/>
    <trip id="437" type="bicycle" depart="437.00" from="WC" to="CS"/>
    <trip id="438" type="bicycle" depart="438.00" from="EC" to="CW"/>
    <trip id="439" type="bicycle" depart="439.00" from="EC" to="CN"/>
    <trip id="441" type="bicycle" depart="441.00" from="EC" to="CW"/>
    <trip id="442" type="bicycle" depart="442.00" from="WC" to="CS"/>
    <trip id="443" type="bicycle" depart="443.00" from="EC" to="CN"/>
    <trip id="444" type="bicycle" depart="444.00" from="NC" to="CS"/>
    <trip id="445" type="bicycle" depart="445.00" from="SC" to="CN"/>
    <trip id="446" type="bicycle" depart="446.00" from="NC" to="CW"/>
    <trip id="447" type="bicycle" depart="447.00" from="EC" to="CN"/>
    <trip id="451" type="bicycle" depart="451.00" from="WC" to="CS"/>
    <trip id="452" type="bicycle" depart="452.00" from="NC" to="CS"/>
    <trip id="455" type="bicycle" depart="455.00" from="NC" to="CW"/>
    <trip id="456" type="bicycle" depart="456.00" from="NC" to="CW"/>
    <trip id="457" type="bicycle" depart="457.00" from="SC" to="CN"/>
    <trip id="462" type="bicycle" depart="462.00" from="SC" to="CN"/>
    <trip id="463" type="bicycle" depart="463.00" from="NC" to="CS"/>
    <trip id="464" type="bicycle" depart="464.00" from="SC" to="CE"/>
    <trip id="465" type="bicycle" depart="465.00" from="NC" to="CS"/>
    <trip id="471" type="bicycle" depart="471.00" from="WC" to="CS"/>
    <trip id="473" type="bicycle" depart="473.00" from="WC" to="CE"/>
    <trip id="477" type="bicycle" depart="477.00" from="NC" to="CW"/>
    <trip id="479" type="bicycle" depart="479.00" from="NC" to="CS"/>
    <trip id="483" type="bicycle" depart="483.00" from="EC" to="CW"/>
    <trip id="488" type="bicycle" depart="488.00" from="EC" to="CW"/>
    <trip id="490" type="bicycle" depart="490.00" from="EC" to="CW"/>
    <trip id="491" type="bicycle" depart="491.00" from="EC" to="CN"/>
    <trip id="494" type="bicycle" depart="494.00" from="SC" to="CE"/>
    <trip id="497" type="bicycle" depart="497.00" from="WC" to="CE"/>
    <trip id="506" type="bicycle" depart="506.00" from="SC" to="CE"/>
    <trip id="507" type="bicycle" depart="507.00" from="WC" to="CE"/>
    <trip id="509" type="bicycle" depart="509.00" from="EC" to="CW"/>
    <trip id="512" type="bicycle" depart="512.00" from="EC" to="CW"/>
    <trip id="513" type="bicycle" depart="513.00" from="EC" to="CW"/>
    <trip id="516" type="bicycle" depart="516.00" from="SC" to="CE"/>
    <trip id="517" type="bicycle" depart="517.00" from="EC" to="CW"/>
    <trip id="518" type="bicycle" depart="518.00" from="EC" to="CN"/>
    <trip id="521" type="bicycle" depart="521.00" from="SC" to="CN"/>
    <trip id="522" type="bicycle" depart="522.00" from="WC" to="CS"/>
    <trip id="524" type="bicycle" depart="524.00" from="WC" to="CE"/>
    <trip id="526" type="bicycle" depart="526.00" from="SC" to="CN"/>
    <trip id="527" type="bicycle" depart="527.00" from="WC" to="CE"/>
    <trip id="529" type="bicycle" depart="529.00" from="SC" to="CN"/>
    <trip id="530" type="bicycle" depart="530.00" from="WC" to="CE"/>
    <trip id="532" type="bicycle" depart="532.00" from="EC" to="CN"/>
    <trip id="534" type="bicycle" depart="534.00" from="NC" to="CW"/>
    <trip id="535" type="bicycle" depart="535.00" from="SC" to="CN"/>
    <trip id="536" type="bicycle" depart="536.00" from="SC" to="CE"/>
    <trip id="539" type="bicycle" depart="539.00" from="SC" to="CE"/>
    <trip id="543" type="bicycle" depart="543.00" from="NC" to="CS"/>
    <trip id="545" type="bicycle" depart="545.00" from="WC" to="CE"/>
    <trip id="546" type="bicycle" depart="546.00" from="WC" to="CE"/>
    <trip id="548" type="bicycle" depart="548.00" from="WC" to="CS"/>
    <trip id="551" type="bicycle" depart="551.00" from="NC" to="CS"/>
    <trip id="554" type="bicycle" depart="554.00" from="SC" to="CN"/>
    <trip id="555" type="bicycle" depart="555.00" from="SC" to="CE"/>
    <trip id="556" type="bicycle" depart="556.00" from="SC" to="CE"/>
    <trip id="557" type="bicycle" depart="557.00" from="EC" to="CW"/>
    <trip id="558" type="bicycle" depart="558.00" from="NC" to="CW"/>
    <trip id="561" type="bicycle" depart="561.00" from="WC" to="CS"/>
    <trip id="562" type="bicycle" depart="562.00" from="SC" to="CE"/>
    <trip id="565" type="bicycle" depart="565.00" from="SC" to="CN"/>
    <trip id="567" type="bicycle" depart="567.00" from="WC" to="CS"/>
    <trip id="569" type="bicycle" depart="569.00" from="SC" to="CE"/>
    <trip id="570" type="bicycle" depart="570.00" from="SC" to="CE"/>
    <trip id="572" type="bicycle" depart="572.00" from="NC" to="CS"/>
    <trip id="573" type="bicycle" depart="573.00" from="WC" to="CS"/>
    <trip id="576" type="bicycle" depart="576.00" from="SC" to="CN"/>
    <trip id="577" type="bicycle" depart="577.00" from="SC" to="CN"/>
    <trip id="579" type="bicycle" depart="579.00" from="WC" to="CE"/>
    <trip id="581" type="bicycle" depart="581.00" from="SC" to="CN"/>
    <trip id="582" type="bicycle" depart="582.00" from="SC" to="CE"/>
    <trip id="583" type="bicycle" depart="583.00" from="NC" to="CS"/>
    <trip id="584" type="bicycle" depart="584.00" from="EC" to="CN"/>
    <trip id="588" type="bicycle" depart="588.00" from="EC" to="CN"/>
    <trip id="591" type="bicycle" depart="591.00" from="EC" to="CW"/>
    <trip id="595" type="bicycle" depart="595.00" from="SC" to="CN"/>
    <trip id="597" type="bicycle" depart="597.00" from="NC" to="CW"/>
    <trip id="599" type="bicycle" depart="599.00" from="WC" to="CE"/>
    <trip id="600" type="bicycle" depart="600.00" from="WC" to="CE"/>
    <trip id="608" type="bicycle" depart="608.00" from="WC" to="CE"/>
    <trip id="611" type="bicycle" depart="611.00" from="SC" to="CE"/>
    <trip id="614" type="bicycle" depart="614.00" from="NC" to="CW"/>
    <trip id="617" type="bicycle" depart="617.00" from="SC" to="CE"/>
    <trip id="618" type="bicycle" depart="618.00" from="EC" to="CN"/>
    <trip id="622" type="bicycle" depart="622.00" from="EC" to="CW"/>
    <trip id="623" type="bicycle" depart="623.00" from="EC" to="CW"/>
    <trip id="624" type="bicycle" depart="624.00" from="WC" to="CS"/>
    <trip id="625" type="bicycle" depart="625.00" from="SC" to="CN"/>
    <trip id="628" type="bicycle" depart="628.00" from="WC" to="CS"/>
    <trip id="631" type="bicycle" depart="631.00" from="EC" to="CW"/>
    <trip id="632" type="bicycle" depart="632.00" from="NC" to="CS"/>
    <trip id="633" type="bicycle" depart="633.00" from="SC" to="CE"/>
    <trip id="634" type="bicycle" depart="634.00" from="EC" to="CN"/>
    <trip id="635" type="bicycle" depart="635.00" from="NC" to="CS"/>
    <trip id="636" type="bicycle" depart="636.00" from="EC" to="CN"/>
    <trip id="638" type="bicycle" depart="638.00" from="NC" to="CS"/>
    <trip id="639" type="bicycle" depart="639.00" from="WC" to="CS"/>
    <trip id="641" type="bicycle" depart="641.00" from="SC" to="CN"/>
    <trip id="644" type="bicycle" depart="644.00" from="NC" to="CS"/>
    <trip id="645" type="bicycle" depart="645.00" from="EC" to="CN"/>
    <trip id="646" type="bicycle" depart="646.00" from="WC" to="CS"/>
    <trip id="647" type="bicycle" depart="647.00" from="NC" to="CS"/>
    <trip id="649" type="bicycle" depart="649.00" from="NC" to="CW"/>
    <trip id="650" type="bicycle" depart="650.00" from="WC" to="CS"/>
    <trip id="651" type="bicycle" depart="651.00" from="WC" to="CS"/>
    <trip id="653" type="bicycle" depart="653.00" from="SC" to="CN"/>
    <trip id="658" type="bicycle" depart="658.00" from="EC" to="CW"/>
    <trip id="659" type="bicycle" depart="659.00" from="EC" to="CW"/>
    <trip id="661" type="bicycle" depart="661.00" from="EC" to="CN"/>
    <trip id="662" type="bicycle" depart="662.00" from="WC" to="CE"/>
    <trip id="665" type="bicycle" depart="665.00" from="WC" to="CE"/>
    <trip id="667" type="bicycle" depart="667.00" from="SC" to="CE"/>
    <trip id="669" type="bicycle" depart="669.00" from="SC" to="CN"/>
    <trip id="670" type="bicycle" depart="670.00" from="SC" to="CN"/>
    <trip id="675" type="bicycle" depart="675.00" from="NC" to="CS"/>
    <trip id="677" type="bicycle" depart="677.00" from="WC" to="CE"/>
    <trip id="678" type="bicycle" depart="678.00" from="NC" to="CS"/>
    <trip id="679" type="bicycle" depart="679.00" from="WC" to="CS"/>
    <trip id="680" type="bicycle" depart="680.00" from="EC" to="CW"/>
    <trip id="683" type="bicycle" depart="683.00" from="WC" to="CE"/>
    <trip id="684" type="bicycle" depart="684.00" from="NC" to="CW"/>
    <trip id="685" type="bicycle" depart="685.00" from="EC" to="CN"/>
    <trip id="688" type="bicycle" depart="688.00" from="EC" to="CW"/>
    <trip id="692" type="bicycle" depart="692.00" from="EC" to="CN"/>
    <trip id="693" type="bicycle" depart="693.00" from="WC" to="CS"/>
    <trip id="696" type="bicycle" depart="696.00" from="EC" to="CN"/>
    <trip id="697" type="bicycle" depart="697.00" from="WC" to="CS"/>
    <trip id="699" type="bicycle" depart="699.00" from="EC" to="CN"/>
    <trip id="701" type="bicycle" depart="701.00" from="NC" to="CW"/>
    <trip id="703" type="bicycle" depart="703.00" from="WC" to="CS"/>
    <trip id="706" type="bicycle" depart="706.00" from="NC" to="CS"/>
    <trip id="707" type="bicycle" depart="707.00" from="EC" to="CN"/>
    <trip id="708" type="bicycle" depart="708.00" from="SC" to="CE"/>
    <trip id="709" type="bicycle" depart="709.00" from="WC" to="CE"/>
    <trip id="711" type="bicycle" depart="711.00" from="WC" to="CS"/>
    <trip id="717" type="bicycle" depart="717.00" from="WC" to="CS"/>
    <trip id="720" type="bicycle" depart="720.00" from="EC" to="CW"/>
    <trip id="721" type="bicycle" depart="721.00" from="NC" to="CS"/>
    <trip id="723" type="bicycle" depart="723.00" from="EC" to="CW"/>
    <trip id="726" type="bicycle" depart="726.00" from="EC" to="CW"/>
    <trip id="728" type="bicycle" depart="728.00" from="SC" to="CN"/>
    <trip id="729" type="bicycle" depart="729.00" from="WC" to="CE"/>
    <trip id="730" type="bicycle" depart="730.00" from="NC" to="CW"/>
    <trip id="732" type="bicycle" depart="732.00" from="EC" to="CN"/>
    <trip id="733" type="bicycle" depart="733.00" from="WC" to="CS"/>
    <trip id="736" type="bicycle" depart="736.00" from="NC" to="CW"/>
    <trip id="738" type="bicycle" depart="738.00" from="SC" to="CE"/>
    <trip id="740" type="bicycle" depart="740.00" from="SC" to="CN"/>
    <trip id="742" type="bicycle" depart="742.00" from="NC" to="CS"/>
    <trip id="743" type="bicycle" depart="743.00" from="NC" to="CS"/>
    <trip id="749" type="bicycle" depart="749.00" from="NC" to="CW"/>
    <trip id="752" type="bicycle" depart="752.00" from="WC" to="CE"/>
    <trip id="753" type="bicycle" depart="753.00" from="EC" to="CW"/>
    <trip id="757" type="bicycle" depart="757.00" from="NC" to="CW"/>
    <trip id="759" type="bicycle" depart="759.00" from="NC" to="CS"/>
    <trip id="761" type="bicycle" depart="761.00" from="SC" to="CN"/>
    <trip id="762" type="bicycle" depart="762.00" from="NC" to="CS"/>
    <trip id="764" type="bicycle" depart="764.00" from="NC" to="CW"/>
    <trip id="765" type="bicycle" depart="765.00" from="NC" to="CW"/>
    <trip id="773" type="bicycle" depart="773.00" from="WC" to="CS"/>
    <trip id="774" type="bicycle" depart="774.00" from="WC" to="CS"/>
    <trip id="775" type="bicycle" depart="775.00" from="WC" to="CS"/>
    <trip id="777" type="bicycle" depart="777.00" from="EC" to="CW"/>
    <trip id="779" type="bicycle" depart="779.00" from="NC" to="CW"/>
    <trip id="781" type="bicycle" depart="781.00" from="EC" to="CN"/>
    <trip id="782" type="bicycle" depart="782.00" from="WC" to="CS"/>
    <trip id="784" type="bicycle" depart="784.00" from="WC" to="CE"/>
    <trip id="785" type="bicycle" depart="785.00" from="WC" to="CS"/>
    <trip id="786" type="bicycle" depart="786.00" from="NC" to="CS"/>
    <trip id="787" type="bicycle" depart="787.00" from="NC" to="CW"/>
    <trip id="788" type="bicycle" depart="788.00" from="WC" to="CS"/>
    <trip id="789" type="bicycle" depart="789.00" from="EC" to="CW"/>
    <trip id="790" type="bicycle" depart="790.00" from="NC" to="CW"/>
    <trip id="793" type="bicycle" depart="793.00" from="NC" to="CS"/>
    <trip id="794" type="bicycle" depart="794.00" from="NC" to="CW"/>
    <trip id="796" type="bicycle" depart="796.00" from="NC" to="CS"/>
    <trip id="797" type="bicycle" depart="797.00" from="SC" to="CE"/>
    <trip id="798" type="bicycle" depart="798.00" from="NC" to="CS"/>
    <trip id="799" type="bicycle" depart="799.00" from="SC" to="CE"/>
    <trip id="800" type="bicycle" depart="800.00" from="WC" to="CE"/>
    <trip id="807" type="bicycle" depart="807.00" from="NC" to="CS"/>
    <trip id="808" type="bicycle" depart="808.00" from="NC" to="CS"/>
    <trip id="809" type="bicycle" depart="809.00" from="NC" to="CW"/>
    <trip id="810" type="bicycle" depart="810.00" from="NC" to="CW"/>
    <trip id="811" type="bicycle" depart="811.00" from="SC" to="CN"/>
    <trip id="815" type="bicycle" depart="815.00" from="NC" to="CS"/>
    <trip id="817" type="bicycle" depart="817.00" from="WC" to="CE"/>
    <trip id="818" type="bicycle" depart="818.00" from="NC" to="CS"/>
    <trip id="821" type="bicycle" depart="821.00" from="EC" to="CN"/>