<?xml version="1.0" encoding="UTF-8"?>
<!-- generated on 2021-06-23 10:16:09.852190 by $Id$ v1_7_0+1095-7111e26d53
  options: -n sumo/networks/cross6_LFR_exits.net.xml -o sumo/demands/vehicles.rou.xml <doubleminus>weights-prefix sumo/demands/edge_weights -b 0 -e 500 -p 3 <doubleminus>binomial 10
-->
<routes xmlns:xsi="http://www.w3.org/2001/XMLSchema-instance" xsi:noNamespaceSchemaLocation="http://sumo.dlr.de/xsd/routes_file.xsd">
    <trip id="0" depart="0.00" from="NN" to="CE"/>
    <trip id="1" depart="0.00" from="EE" to="CS"/>
    <trip id="2" depart="0.00" from="EE" to="CS"/>
    <trip id="3" depart="1.00" from="WW" to="CS"/>
    <trip id="4" depart="5.00" from="NN" to="CN"/>
    <trip id="5" depart="9.00" from="SS" to="CS"/>
    <trip id="6" depart="11.00" from="NN" to="CE"/>
    <trip id="7" depart="25.00" from="WW" to="CN"/>
    <trip id="8" depart="27.00" from="WW" to="CS"/>
    <trip id="9" depart="27.00" from="EE" to="CW"/>
    <trip id="10" depart="30.00" from="SS" to="CN"/>
    <trip id="11" depart="32.00" from="EE" to="CN"/>
    <trip id="12" depart="34.00" from="WW" to="CS"/>
    <trip id="13" depart="36.00" from="NN" to="CN"/>
    <trip id="14" depart="38.00" from="EE" to="CN"/>
    <trip id="15" depart="39.00" from="WW" to="CW"/>
    <trip id="16" depart="44.00" from="NN" to="CW"/>
    <trip id="17" depart="45.00" from="NN" to="CS"/>
    <trip id="18" depart="46.00" from="NN" to="CS"/>
    <trip id="19" depart="46.00" from="SS" to="CE"/>
    <trip id="20" depart="47.00" from="SS" to="CW"/>
    <trip id="21" depart="48.00" from="EE" to="CE"/>
    <trip id="22" depart="49.00" from="NN" to="CS"/>
    <trip id="23" depart="54.00" from="WW" to="CE"/>
    <trip id="24" depart="55.00" from="WW" to="CE"/>
    <trip id="25" depart="58.00" from="SS" to="CN"/>
    <trip id="26" depart="63.00" from="NN" to="CS"/>
    <trip id="27" depart="82.00" from="WW" to="CW"/>
    <trip id="28" depart="90.00" from="SS" to="CN"/>
    <trip id="29" depart="90.00" from="WW" to="CS"/>
    <trip id="30" depart="93.00" from="NN" to="CN"/>
    <trip id="31" depart="95.00" from="WW" to="CE"/>
    <trip id="32" depart="96.00" from="WW" to="CE"/>
    <trip id="33" depart="96.00" from="EE" to="CW"/>
    <trip id="34" depart="105.00" from="WW" to="CW"/>
    <trip id="35" depart="106.00" from="WW" to="CS"/>
    <trip id="36" depart="106.00" from="SS" to="CE"/>
    <trip id="37" depart="109.00" from="NN" to="CE"/>
    <trip id="38" depart="109.00" from="SS" to="CE"/>
    <trip id="39" depart="110.00" from="WW" to="CW"/>
    <trip id="40" depart="111.00" from="NN" to="CW"/>
    <trip id="41" depart="129.00" from="EE" to="CS"/>
    <trip id="42" depart="129.00" from="WW" to="CW"/>
    <trip id="43" depart="130.00" from="EE" to="CN"/>
    <trip id="44" depart="132.00" from="SS" to="CE"/>
    <trip id="45" depart="133.00" from="WW" to="CN"/>
    <trip id="46" depart="146.00" from="SS" to="CN"/>
    <trip id="47" depart="151.00" from="EE" to="CS"/>
    <trip id="48" depart="156.00" from="WW" to="CS"/>
    <trip id="49" depart="162.00" from="NN" to="CW"/>
    <trip id="50" depart="163.00" from="WW" to="CE"/>
    <trip id="51" depart="163.00" from="NN" to="CE"/>
    <trip id="52" depart="170.00" from="SS" to="CW"/>
    <trip id="53" depart="173.00" from="SS" to="CE"/>
    <trip id="54" depart="176.00" from="SS" to="CS"/>
    <trip id="55" depart="182.00" from="NN" to="CW"/>
    <trip id="56" depart="184.00" from="EE" to="CN"/>
    <trip id="57" depart="186.00" from="EE" to="CE"/>
    <trip id="58" depart="193.00" from="WW" to="CW"/>
    <trip id="59" depart="199.00" from="SS" to="CN"/>
    <trip id="60" depart="200.00" from="SS" to="CE"/>
    <trip id="61" depart="200.00" from="WW" to="CS"/>
    <trip id="62" depart="202.00" from="EE" to="CN"/>
    <trip id="63" depart="204.00" from="WW" to="CN"/>
    <trip id="64" depart="207.00" from="NN" to="CW"/>
    <trip id="65" depart="209.00" from="NN" to="CN"/>
    <trip id="66" depart="209.00" from="NN" to="CE"/>
    <trip id="67" depart="219.00" from="NN" to="CS"/>
    <trip id="68" depart="220.00" from="EE" to="CN"/>
    <trip id="69" depart="223.00" from="SS" to="CE"/>
    <trip id="70" depart="228.00" from="EE" to="CW"/>
    <trip id="71" depart="229.00" from="WW" to="CN"/>
    <trip id="72" depart="237.00" from="WW" to="CS"/>
    <trip id="73" depart="239.00" from="WW" to="CE"/>
    <trip id="74" depart="241.00" from="NN" to="CE"/>
    <trip id="75" depart="241.00" from="SS" to="CW"/>
    <trip id="76" depart="243.00" from="SS" to="CN"/>
    <trip id="77" depart="248.00" from="EE" to="CN"/>
    <trip id="78" depart="253.00" from="WW" to="CN"/>
    <trip id="79" depart="257.00" from="EE" to="CS"/>
    <trip id="80" depart="258.00" from="NN" to="CE"/>
    <trip id="81" depart="259.00" from="SS" to="CW"/>
    <trip id="82" depart="265.00" from="NN" to="CN"/>
    <trip id="83" depart="265.00" from="WW" to="CW"/>
    <trip id="84" depart="266.00" from="EE" to="CW"/>
    <trip id="85" depart="268.00" from="SS" to="CE"/>
    <trip id="86" depart="273.00" from="SS" to="CW"/>
    <trip id="87" depart="275.00" from="WW" to="CE"/>
    <trip id="88" depart="275.00" from="SS" to="CW"/>
    <trip id="89" depart="278.00" from="SS" to="CW"/>
    <trip id="90" depart="281.00" from="NN" to="CS"/>
    <trip id="91" depart="283.00" from="WW" to="CE"/>
    <trip id="92" depart="285.00" from="EE" to="CN"/>
    <trip id="93" depart="295.00" from="WW" to="CN"/>
    <trip id="94" depart="298.00" from="EE" to="CW"/>
    <trip id="95" depart="299.00" from="NN" to="CS"/>
    <trip id="96" depart="301.00" from="WW" to="CW"/>
    <trip id="97" depart="301.00" from="WW" to="CS"/>
    <trip id="98" depart="301.00" from="NN" to="CW"/>
    <trip id="99" depart="311.00" from="NN" to="CW"/>
    <trip id="100" depart="312.00" from="NN" to="CW"/>
    <trip id="101" depart="317.00" from="SS" to="CN"/>
    <trip id="102" depart="320.00" from="SS" to="CW"/>
    <trip id="103" depart="325.00" from="SS" to="CW"/>
    <trip id="104" depart="330.00" from="EE" to="CS"/>
    <trip id="105" depart="341.00" from="EE" to="CS"/>
    <trip id="106" depart="342.00" from="WW" to="CE"/>
    <trip id="107" depart="344.00" from="NN" to="CS"/>
    <trip id="108" depart="349.00" from="SS" to="CN"/>
    <trip id="109" depart="352.00" from="EE" to="CS"/>
    <trip id="110" depart="354.00" from="SS" to="CS"/>
    <trip id="111" depart="357.00" from="SS" to="CS"/>
    <trip id="112" depart="362.00" from="EE" to="CE"/>
    <trip id="113" depart="364.00" from="SS" to="CE"/>
    <trip id="114" depart="372.00" from="EE" to="CS"/>
    <trip id="115" depart="373.00" from="SS" to="CS"/>
    <trip id="116" depart="380.00" from="SS" to="CS"/>
    <trip id="117" depart="383.00" from="EE" to="CE"/>
    <trip id="118" depart="386.00" from="EE" to="CW"/>
    <trip id="119" depart="390.00" from="EE" to="CE"/>
    <trip id="120" depart="391.00" from="WW" to="CE"/>
    <trip id="121" depart="396.00" from="EE" to="CS"/>
    <trip id="122" depart="401.00" from="EE" to="CW"/>
    <trip id="123" depart="405.00" from="SS" to="CS"/>
    <trip id="124" depart="406.00" from="NN" to="CW"/>
    <trip id="125" depart="407.00" from="SS" to="CW"/>
    <trip id="126" depart="409.00" from="WW" to="CW"/>
    <trip id="127" depart="410.00" from="WW" to="CW"/>
    <trip id="128" depart="410.00" from="NN" to="CN"/>
    <trip id="129" depart="410.00" from="NN" to="CN"/>
    <trip id="130" depart="413.00" from="EE" to="CS"/>
    <trip id="131" depart="418.00" from="EE" to="CW"/>
    <trip id="132" depart="423.00" from="SS" to="CN"/>
    <trip id="133" depart="423.00" from="WW" to="CW"/>
    <trip id="134" depart="433.00" from="WW" to="CS"/>
    <trip id="135" depart="437.00" from="WW" to="CN"/>
    <trip id="136" depart="441.00" from="NN" to="CW"/>
    <trip id="137" depart="443.00" from="SS" to="CE"/>
    <trip id="138" depart="443.00" from="EE" to="CS"/>
    <trip id="139" depart="444.00" from="SS" to="CS"/>
    <trip id="140" depart="445.00" from="NN" to="CN"/>
    <trip id="141" depart="445.00" from="WW" to="CS"/>
    <trip id="142" depart="446.00" from="EE" to="CS"/>
    <trip id="143" depart="448.00" from="SS" to="CN"/>
    <trip id="144" depart="454.00" from="WW" to="CE"/>
    <trip id="145" depart="464.00" from="WW" to="CE"/>
    <trip id="146" depart="471.00" from="EE" to="CS"/>
    <trip id="147" depart="472.00" from="EE" to="CN"/>
    <trip id="148" depart="473.00" from="SS" to="CN"/>
    <trip id="149" depart="473.00" from="EE" to="CN"/>
    <trip id="150" depart="476.00" from="WW" to="CS"/>
    <trip id="151" depart="476.00" from="NN" to="CN"/>
    <trip id="152" depart="478.00" from="NN" to="CS"/>
    <trip id="153" depart="479.00" from="WW" to="CS"/>
    <trip id="154" depart="481.00" from="SS" to="CS"/>
    <trip id="155" depart="486.00" from="NN" to="CN"/>
    <trip id="156" depart="491.00" from="EE" to="CE"/>
    <trip id="157" depart="493.00" from="WW" to="CN"/>
    <trip id="158" depart="496.00" from="SS" to="CN"/>
</routes>
