<?xml version="1.0" encoding="UTF-8"?>
<!-- generated on 2021-06-04 15:27:28.736282 by $Id$ UNKNOWN
  options: -n example/sumo/networks/cross5_LFR_exits.net.xml -o example/sumo/demands/vehicles_bin5.rou.xml <doubleminus>weights-prefix example/sumo/demands/edge_weights -b 0 -e 500 <doubleminus>binomial 5
-->
<routes xmlns:xsi="http://www.w3.org/2001/XMLSchema-instance" xsi:noNamespaceSchemaLocation="http://sumo.dlr.de/xsd/routes_file.xsd">
    <trip id="0" depart="0.00" from="NN" to="CE"/>
    <trip id="1" depart="1.00" from="NN" to="CE"/>
    <trip id="2" depart="1.00" from="EE" to="CS"/>
    <trip id="3" depart="2.00" from="WW" to="CS"/>
    <trip id="4" depart="3.00" from="WW" to="CN"/>
    <trip id="5" depart="3.00" from="EE" to="CW"/>
    <trip id="6" depart="5.00" from="EE" to="CN"/>
    <trip id="7" depart="6.00" from="EE" to="CE"/>
    <trip id="8" depart="8.00" from="SS" to="CE"/>
    <trip id="9" depart="9.00" from="NN" to="CN"/>
    <trip id="10" depart="13.00" from="EE" to="CE"/>
    <trip id="11" depart="14.00" from="NN" to="CW"/>
    <trip id="12" depart="15.00" from="SS" to="CS"/>
    <trip id="13" depart="16.00" from="NN" to="CN"/>
    <trip id="14" depart="17.00" from="WW" to="CW"/>
    <trip id="15" depart="17.00" from="WW" to="CS"/>
    <trip id="16" depart="18.00" from="NN" to="CE"/>
    <trip id="17" depart="19.00" from="WW" to="CW"/>
    <trip id="18" depart="19.00" from="NN" to="CE"/>
    <trip id="19" depart="20.00" from="NN" to="CS"/>
    <trip id="20" depart="22.00" from="EE" to="CN"/>
    <trip id="21" depart="23.00" from="SS" to="CE"/>
    <trip id="22" depart="24.00" from="EE" to="CS"/>
    <trip id="23" depart="24.00" from="WW" to="CS"/>
    <trip id="24" depart="25.00" from="EE" to="CN"/>
    <trip id="25" depart="26.00" from="NN" to="CN"/>
    <trip id="26" depart="27.00" from="NN" to="CN"/>
    <trip id="27" depart="28.00" from="WW" to="CW"/>
    <trip id="28" depart="29.00" from="NN" to="CE"/>
    <trip id="29" depart="29.00" from="NN" to="CW"/>
    <trip id="30" depart="31.00" from="NN" to="CW"/>
    <trip id="31" depart="32.00" from="SS" to="CS"/>
    <trip id="32" depart="32.00" from="WW" to="CE"/>
    <trip id="33" depart="33.00" from="SS" to="CS"/>
    <trip id="34" depart="33.00" from="WW" to="CE"/>
    <trip id="35" depart="36.00" from="NN" to="CW"/>
    <trip id="36" depart="36.00" from="EE" to="CN"/>
    <trip id="37" depart="37.00" from="WW" to="CS"/>
    <trip id="38" depart="38.00" from="WW" to="CN"/>
    <trip id="39" depart="39.00" from="EE" to="CE"/>
    <trip id="40" depart="41.00" from="NN" to="CN"/>
    <trip id="41" depart="41.00" from="WW" to="CS"/>
    <trip id="42" depart="42.00" from="EE" to="CW"/>
    <trip id="43" depart="43.00" from="EE" to="CN"/>
    <trip id="44" depart="45.00" from="WW" to="CW"/>
    <trip id="45" depart="45.00" from="WW" to="CW"/>
    <trip id="46" depart="46.00" from="SS" to="CN"/>
    <trip id="47" depart="47.00" from="WW" to="CW"/>
    <trip id="48" depart="49.00" from="EE" to="CN"/>
    <trip id="49" depart="51.00" from="WW" to="CE"/>
    <trip id="50" depart="51.00" from="NN" to="CS"/>
    <trip id="51" depart="53.00" from="WW" to="CS"/>
    <trip id="52" depart="54.00" from="SS" to="CN"/>
    <trip id="53" depart="56.00" from="NN" to="CW"/>
    <trip id="54" depart="57.00" from="NN" to="CN"/>
    <trip id="55" depart="59.00" from="EE" to="CS"/>
    <trip id="56" depart="60.00" from="EE" to="CE"/>
    <trip id="57" depart="61.00" from="NN" to="CS"/>
    <trip id="58" depart="61.00" from="SS" to="CN"/>
    <trip id="59" depart="61.00" from="WW" to="CW"/>
    <trip id="60" depart="62.00" from="NN" to="CE"/>
    <trip id="61" depart="62.00" from="EE" to="CW"/>
    <trip id="62" depart="67.00" from="NN" to="CN"/>
    <trip id="63" depart="67.00" from="EE" to="CS"/>
    <trip id="64" depart="68.00" from="NN" to="CS"/>
    <trip id="65" depart="70.00" from="NN" to="CW"/>
    <trip id="66" depart="72.00" from="NN" to="CS"/>
    <trip id="67" depart="72.00" from="NN" to="CE"/>
    <trip id="68" depart="73.00" from="NN" to="CS"/>
    <trip id="69" depart="73.00" from="SS" to="CE"/>
    <trip id="70" depart="73.00" from="NN" to="CE"/>
    <trip id="71" depart="75.00" from="EE" to="CS"/>
    <trip id="72" depart="76.00" from="EE" to="CE"/>
    <trip id="73" depart="76.00" from="SS" to="CS"/>
    <trip id="74" depart="77.00" from="SS" to="CS"/>
    <trip id="75" depart="77.00" from="WW" to="CW"/>
    <trip id="76" depart="78.00" from="EE" to="CN"/>
    <trip id="77" depart="79.00" from="SS" to="CS"/>
    <trip id="78" depart="79.00" from="WW" to="CW"/>
    <trip id="79" depart="79.00" from="WW" to="CW"/>
    <trip id="80" depart="81.00" from="WW" to="CS"/>
    <trip id="81" depart="84.00" from="WW" to="CE"/>
    <trip id="82" depart="85.00" from="WW" to="CE"/>
    <trip id="83" depart="86.00" from="WW" to="CE"/>
    <trip id="84" depart="88.00" from="EE" to="CS"/>
    <trip id="85" depart="90.00" from="EE" to="CE"/>
    <trip id="86" depart="90.00" from="EE" to="CN"/>
    <trip id="87" depart="91.00" from="EE" to="CE"/>
    <trip id="88" depart="92.00" from="EE" to="CS"/>
    <trip id="89" depart="93.00" from="WW" to="CN"/>
    <trip id="90" depart="94.00" from="EE" to="CW"/>
    <trip id="91" depart="94.00" from="SS" to="CE"/>
    <trip id="92" depart="95.00" from="SS" to="CN"/>
    <trip id="93" depart="95.00" from="WW" to="CS"/>
    <trip id="94" depart="98.00" from="EE" to="CE"/>
    <trip id="95" depart="98.00" from="NN" to="CS"/>
    <trip id="96" depart="102.00" from="EE" to="CN"/>
    <trip id="97" depart="103.00" from="SS" to="CS"/>
    <trip id="98" depart="103.00" from="EE" to="CN"/>
    <trip id="99" depart="104.00" from="WW" to="CW"/>
    <trip id="100" depart="105.00" from="WW" to="CN"/>
    <trip id="101" depart="106.00" from="SS" to="CS"/>
    <trip id="102" depart="106.00" from="NN" to="CN"/>
    <trip id="103" depart="110.00" from="NN" to="CW"/>
    <trip id="104" depart="112.00" from="WW" to="CS"/>
    <trip id="105" depart="112.00" from="SS" to="CS"/>
    <trip id="106" depart="112.00" from="WW" to="CW"/>
    <trip id="107" depart="113.00" from="WW" to="CN"/>
    <trip id="108" depart="117.00" from="SS" to="CN"/>
    <trip id="109" depart="118.00" from="SS" to="CS"/>
    <trip id="110" depart="119.00" from="SS" to="CS"/>
    <trip id="111" depart="120.00" from="SS" to="CS"/>
    <trip id="112" depart="122.00" from="NN" to="CW"/>
    <trip id="113" depart="125.00" from="EE" to="CS"/>
    <trip id="114" depart="126.00" from="SS" to="CW"/>
    <trip id="115" depart="126.00" from="WW" to="CN"/>
    <trip id="116" depart="127.00" from="SS" to="CS"/>
    <trip id="117" depart="127.00" from="EE" to="CW"/>
    <trip id="118" depart="128.00" from="NN" to="CN"/>
    <trip id="119" depart="128.00" from="WW" to="CW"/>
    <trip id="120" depart="129.00" from="NN" to="CN"/>
    <trip id="121" depart="130.00" from="NN" to="CN"/>
    <trip id="122" depart="132.00" from="SS" to="CN"/>
    <trip id="123" depart="136.00" from="NN" to="CS"/>
    <trip id="124" depart="136.00" from="EE" to="CS"/>
    <trip id="125" depart="139.00" from="WW" to="CE"/>
    <trip id="126" depart="140.00" from="SS" to="CN"/>
    <trip id="127" depart="142.00" from="EE" to="CE"/>
    <trip id="128" depart="143.00" from="WW" to="CW"/>
    <trip id="129" depart="143.00" from="WW" to="CN"/>
    <trip id="130" depart="144.00" from="WW" to="CE"/>
    <trip id="131" depart="145.00" from="NN" to="CE"/>
    <trip id="132" depart="146.00" from="NN" to="CN"/>
    <trip id="133" depart="146.00" from="SS" to="CS"/>
    <trip id="134" depart="147.00" from="EE" to="CW"/>
    <trip id="135" depart="148.00" from="WW" to="CE"/>
    <trip id="136" depart="148.00" from="SS" to="CE"/>
    <trip id="137" depart="150.00" from="WW" to="CE"/>
    <trip id="138" depart="150.00" from="EE" to="CN"/>
    <trip id="139" depart="150.00" from="SS" to="CE"/>
    <trip id="140" depart="150.00" from="WW" to="CE"/>
    <trip id="141" depart="151.00" from="EE" to="CS"/>
    <trip id="142" depart="152.00" from="SS" to="CW"/>
    <trip id="143" depart="152.00" from="WW" to="CW"/>
    <trip id="144" depart="153.00" from="NN" to="CN"/>
    <trip id="145" depart="154.00" from="EE" to="CS"/>
    <trip id="146" depart="154.00" from="NN" to="CS"/>
    <trip id="147" depart="155.00" from="SS" to="CW"/>
    <trip id="148" depart="157.00" from="NN" to="CS"/>
    <trip id="149" depart="158.00" from="WW" to="CE"/>
    <trip id="150" depart="158.00" from="EE" to="CS"/>
    <trip id="151" depart="159.00" from="NN" to="CS"/>
    <trip id="152" depart="162.00" from="WW" to="CN"/>
    <trip id="153" depart="163.00" from="WW" to="CW"/>
    <trip id="154" depart="164.00" from="SS" to="CN"/>
    <trip id="155" depart="164.00" from="WW" to="CS"/>
    <trip id="156" depart="165.00" from="SS" to="CE"/>
    <trip id="157" depart="166.00" from="EE" to="CE"/>
    <trip id="158" depart="168.00" from="NN" to="CN"/>
    <trip id="159" depart="169.00" from="NN" to="CS"/>
    <trip id="160" depart="169.00" from="NN" to="CE"/>
    <trip id="161" depart="169.00" from="NN" to="CN"/>
    <trip id="162" depart="170.00" from="SS" to="CE"/>
    <trip id="163" depart="171.00" from="WW" to="CE"/>
    <trip id="164" depart="171.00" from="WW" to="CW"/>
    <trip id="165" depart="172.00" from="EE" to="CN"/>
    <trip id="166" depart="173.00" from="WW" to="CE"/>
    <trip id="167" depart="174.00" from="SS" to="CE"/>
    <trip id="168" depart="176.00" from="EE" to="CS"/>
    <trip id="169" depart="177.00" from="WW" to="CN"/>
    <trip id="170" depart="179.00" from="EE" to="CN"/>
    <trip id="171" depart="179.00" from="SS" to="CN"/>
    <trip id="172" depart="180.00" from="WW" to="CE"/>
    <trip id="173" depart="182.00" from="EE" to="CE"/>
    <trip id="174" depart="183.00" from="EE" to="CN"/>
    <trip id="175" depart="184.00" from="NN" to="CN"/>
    <trip id="176" depart="185.00" from="EE" to="CS"/>
    <trip id="177" depart="187.00" from="NN" to="CW"/>
    <trip id="178" depart="190.00" from="EE" to="CW"/>
    <trip id="179" depart="191.00" from="EE" to="CW"/>
    <trip id="180" depart="191.00" from="WW" to="CW"/>
    <trip id="181" depart="192.00" from="NN" to="CW"/>
    <trip id="182" depart="192.00" from="NN" to="CE"/>
    <trip id="183" depart="193.00" from="NN" to="CN"/>
    <trip id="184" depart="197.00" from="NN" to="CS"/>
    <trip id="185" depart="198.00" from="WW" to="CW"/>
    <trip id="186" depart="199.00" from="NN" to="CW"/>
    <trip id="187" depart="199.00" from="EE" to="CS"/>
    <trip id="188" depart="200.00" from="WW" to="CW"/>
    <trip id="189" depart="201.00" from="NN" to="CW"/>
    <trip id="190" depart="201.00" from="SS" to="CN"/>
    <trip id="191" depart="201.00" from="EE" to="CN"/>
    <trip id="192" depart="202.00" from="NN" to="CN"/>
    <trip id="193" depart="203.00" from="NN" to="CW"/>
    <trip id="194" depart="203.00" from="WW" to="CS"/>
    <trip id="195" depart="203.00" from="SS" to="CE"/>
    <trip id="196" depart="203.00" from="NN" to="CS"/>
    <trip id="197" depart="204.00" from="WW" to="CE"/>
    <trip id="198" depart="206.00" from="WW" to="CN"/>
    <trip id="199" depart="207.00" from="SS" to="CW"/>
    <trip id="200" depart="208.00" from="WW" to="CN"/>
    <trip id="201" depart="208.00" from="WW" to="CN"/>
    <trip id="202" depart="209.00" from="EE" to="CE"/>
    <trip id="203" depart="210.00" from="NN" to="CW"/>
    <trip id="204" depart="211.00" from="NN" to="CW"/>
    <trip id="205" depart="213.00" from="SS" to="CW"/>
    <trip id="206" depart="214.00" from="SS" to="CN"/>
    <trip id="207" depart="215.00" from="WW" to="CN"/>
    <trip id="208" depart="216.00" from="SS" to="CN"/>
    <trip id="209" depart="216.00" from="SS" to="CW"/>
    <trip id="210" depart="217.00" from="EE" to="CW"/>
    <trip id="211" depart="219.00" from="SS" to="CN"/>
    <trip id="212" depart="221.00" from="WW" to="CN"/>
    <trip id="213" depart="222.00" from="SS" to="CW"/>
    <trip id="214" depart="223.00" from="SS" to="CW"/>
    <trip id="215" depart="224.00" from="EE" to="CE"/>
    <trip id="216" depart="224.00" from="SS" to="CN"/>
    <trip id="217" depart="225.00" from="NN" to="CW"/>
    <trip id="218" depart="226.00" from="WW" to="CS"/>
    <trip id="219" depart="228.00" from="WW" to="CN"/>
    <trip id="220" depart="228.00" from="EE" to="CE"/>
    <trip id="221" depart="228.00" from="NN" to="CS"/>
    <trip id="222" depart="230.00" from="NN" to="CS"/>
    <trip id="223" depart="230.00" from="WW" to="CE"/>
    <trip id="224" depart="232.00" from="EE" to="CS"/>
    <trip id="225" depart="234.00" from="EE" to="CN"/>
    <trip id="226" depart="236.00" from="NN" to="CS"/>
    <trip id="227" depart="237.00" from="NN" to="CN"/>
    <trip id="228" depart="238.00" from="NN" to="CS"/>
    <trip id="229" depart="239.00" from="WW" to="CS"/>
    <trip id="230" depart="240.00" from="NN" to="CW"/>
    <trip id="231" depart="243.00" from="SS" to="CE"/>
    <trip id="232" depart="244.00" from="WW" to="CN"/>
    <trip id="233" depart="245.00" from="SS" to="CS"/>
    <trip id="234" depart="245.00" from="EE" to="CN"/>
    <trip id="235" depart="246.00" from="WW" to="CS"/>
    <trip id="236" depart="249.00" from="NN" to="CW"/>
    <trip id="237" depart="251.00" from="SS" to="CS"/>
    <trip id="238" depart="251.00" from="SS" to="CE"/>
    <trip id="239" depart="251.00" from="EE" to="CN"/>
    <trip id="240" depart="252.00" from="SS" to="CN"/>
    <trip id="241" depart="253.00" from="EE" to="CE"/>
    <trip id="242" depart="254.00" from="WW" to="CN"/>
    <trip id="243" depart="255.00" from="EE" to="CS"/>
    <trip id="244" depart="257.00" from="SS" to="CN"/>
    <trip id="245" depart="261.00" from="SS" to="CS"/>
    <trip id="246" depart="262.00" from="NN" to="CS"/>
    <trip id="247" depart="262.00" from="WW" to="CE"/>
    <trip id="248" depart="263.00" from="WW" to="CN"/>
    <trip id="249" depart="264.00" from="SS" to="CS"/>
    <trip id="250" depart="265.00" from="WW" to="CE"/>
    <trip id="251" depart="266.00" from="SS" to="CE"/>
    <trip id="252" depart="268.00" from="EE" to="CE"/>
    <trip id="253" depart="269.00" from="SS" to="CW"/>
    <trip id="254" depart="269.00" from="WW" to="CW"/>
    <trip id="255" depart="270.00" from="SS" to="CE"/>
    <trip id="256" depart="270.00" from="NN" to="CE"/>
    <trip id="257" depart="272.00" from="SS" to="CS"/>
    <trip id="258" depart="272.00" from="EE" to="CN"/>
    <trip id="259" depart="273.00" from="WW" to="CN"/>
    <trip id="260" depart="274.00" from="EE" to="CS"/>
    <trip id="261" depart="276.00" from="NN" to="CS"/>
    <trip id="262" depart="276.00" from="SS" to="CE"/>
    <trip id="263" depart="277.00" from="NN" to="CS"/>
    <trip id="264" depart="277.00" from="EE" to="CS"/>
    <trip id="265" depart="277.00" from="SS" to="CW"/>
    <trip id="266" depart="278.00" from="NN" to="CW"/>
    <trip id="267" depart="279.00" from="NN" to="CE"/>
    <trip id="268" depart="280.00" from="WW" to="CE"/>
    <trip id="269" depart="283.00" from="SS" to="CS"/>
    <trip id="270" depart="284.00" from="EE" to="CN"/>
    <trip id="271" depart="286.00" from="WW" to="CN"/>
    <trip id="272" depart="286.00" from="EE" to="CE"/>
    <trip id="273" depart="287.00" from="SS" to="CS"/>
    <trip id="274" depart="287.00" from="SS" to="CN"/>
    <trip id="275" depart="288.00" from="SS" to="CN"/>
    <trip id="276" depart="289.00" from="SS" to="CE"/>
    <trip id="277" depart="290.00" from="WW" to="CW"/>
    <trip id="278" depart="292.00" from="NN" to="CW"/>
    <trip id="279" depart="294.00" from="EE" to="CE"/>
    <trip id="280" depart="295.00" from="SS" to="CE"/>
    <trip id="281" depart="296.00" from="WW" to="CS"/>
    <trip id="282" depart="297.00" from="WW" to="CW"/>
    <trip id="283" depart="297.00" from="WW" to="CN"/>
    <trip id="284" depart="300.00" from="WW" to="CN"/>
    <trip id="285" depart="301.00" from="NN" to="CW"/>
    <trip id="286" depart="302.00" from="NN" to="CN"/>
    <trip id="287" depart="304.00" from="WW" to="CE"/>
    <trip id="288" depart="305.00" from="EE" to="CW"/>
    <trip id="289" depart="306.00" from="SS" to="CN"/>
    <trip id="290" depart="308.00" from="SS" to="CE"/>
    <trip id="291" depart="308.00" from="WW" to="CS"/>
    <trip id="292" depart="309.00" from="EE" to="CE"/>
    <trip id="293" depart="309.00" from="SS" to="CW"/>
    <trip id="294" depart="312.00" from="NN" to="CS"/>
    <trip id="295" depart="312.00" from="EE" to="CE"/>
    <trip id="296" depart="313.00" from="SS" to="CE"/>
    <trip id="297" depart="314.00" from="EE" to="CW"/>
    <trip id="298" depart="315.00" from="WW" to="CN"/>
    <trip id="299" depart="316.00" from="EE" to="CE"/>
    <trip id="300" depart="317.00" from="WW" to="CS"/>
    <trip id="301" depart="318.00" from="NN" to="CW"/>
    <trip id="302" depart="319.00" from="NN" to="CW"/>
    <trip id="303" depart="320.00" from="SS" to="CW"/>
    <trip id="304" depart="321.00" from="EE" to="CS"/>
    <trip id="305" depart="322.00" from="EE" to="CN"/>
    <trip id="306" depart="322.00" from="EE" to="CN"/>
    <trip id="307" depart="323.00" from="NN" to="CE"/>
    <trip id="308" depart="324.00" from="WW" to="CW"/>
    <trip id="309" depart="325.00" from="NN" to="CE"/>
    <trip id="310" depart="325.00" from="NN" to="CN"/>
    <trip id="311" depart="326.00" from="NN" to="CE"/>
    <trip id="312" depart="326.00" from="EE" to="CN"/>
    <trip id="313" depart="328.00" from="NN" to="CW"/>
    <trip id="314" depart="331.00" from="SS" to="CS"/>
    <trip id="315" depart="335.00" from="WW" to="CN"/>
    <trip id="316" depart="337.00" from="WW" to="CS"/>
    <trip id="317" depart="337.00" from="WW" to="CS"/>
    <trip id="318" depart="338.00" from="NN" to="CS"/>
    <trip id="319" depart="340.00" from="EE" to="CN"/>
    <trip id="320" depart="341.00" from="WW" to="CE"/>
    <trip id="321" depart="343.00" from="WW" to="CS"/>
    <trip id="322" depart="343.00" from="WW" to="CE"/>
    <trip id="323" depart="344.00" from="EE" to="CS"/>
    <trip id="324" depart="344.00" from="SS" to="CN"/>
    <trip id="325" depart="345.00" from="SS" to="CE"/>
    <trip id="326" depart="346.00" from="EE" to="CW"/>
    <trip id="327" depart="346.00" from="NN" to="CN"/>
    <trip id="328" depart="349.00" from="EE" to="CE"/>
    <trip id="329" depart="350.00" from="SS" to="CS"/>
    <trip id="330" depart="350.00" from="NN" to="CE"/>
    <trip id="331" depart="351.00" from="NN" to="CN"/>
    <trip id="332" depart="352.00" from="NN" to="CE"/>
    <trip id="333" depart="352.00" from="WW" to="CW"/>
    <trip id="334" depart="353.00" from="EE" to="CW"/>
    <trip id="335" depart="354.00" from="NN" to="CS"/>
    <trip id="336" depart="355.00" from="EE" to="CW"/>
    <trip id="337" depart="355.00" from="SS" to="CS"/>
    <trip id="338" depart="356.00" from="WW" to="CW"/>
    <trip id="339" depart="359.00" from="EE" to="CE"/>
    <trip id="340" depart="359.00" from="NN" to="CN"/>
    <trip id="341" depart="361.00" from="WW" to="CW"/>
    <trip id="342" depart="362.00" from="WW" to="CE"/>
    <trip id="343" depart="364.00" from="SS" to="CN"/>
    <trip id="344" depart="365.00" from="WW" to="CS"/>
    <trip id="345" depart="366.00" from="SS" to="CE"/>
    <trip id="346" depart="368.00" from="EE" to="CW"/>
    <trip id="347" depart="369.00" from="WW" to="CN"/>
    <trip id="348" depart="369.00" from="WW" to="CE"/>
    <trip id="349" depart="369.00" from="SS" to="CE"/>
    <trip id="350" depart="371.00" from="NN" to="CN"/>
    <trip id="351" depart="372.00" from="NN" to="CE"/>
    <trip id="352" depart="372.00" from="SS" to="CW"/>
    <trip id="353" depart="373.00" from="EE" to="CN"/>
    <trip id="354" depart="373.00" from="NN" to="CW"/>
    <trip id="355" depart="374.00" from="WW" to="CW"/>
    <trip id="356" depart="374.00" from="WW" to="CE"/>
    <trip id="357" depart="374.00" from="SS" to="CN"/>
    <trip id="358" depart="375.00" from="NN" to="CS"/>
    <trip id="359" depart="375.00" from="EE" to="CW"/>
    <trip id="360" depart="376.00" from="NN" to="CE"/>
    <trip id="361" depart="379.00" from="WW" to="CW"/>
    <trip id="362" depart="379.00" from="NN" to="CS"/>
    <trip id="363" depart="380.00" from="WW" to="CS"/>
    <trip id="364" depart="381.00" from="EE" to="CN"/>
    <trip id="365" depart="382.00" from="EE" to="CW"/>
    <trip id="366" depart="383.00" from="SS" to="CS"/>
    <trip id="367" depart="385.00" from="SS" to="CS"/>
    <trip id="368" depart="385.00" from="EE" to="CN"/>
    <trip id="369" depart="387.00" from="SS" to="CS"/>
    <trip id="370" depart="387.00" from="WW" to="CS"/>
    <trip id="371" depart="387.00" from="EE" to="CW"/>
    <trip id="372" depart="388.00" from="WW" to="CN"/>
    <trip id="373" depart="388.00" from="SS" to="CS"/>
    <trip id="374" depart="389.00" from="NN" to="CN"/>
    <trip id="375" depart="390.00" from="SS" to="CS"/>
    <trip id="376" depart="390.00" from="WW" to="CE"/>
    <trip id="377" depart="391.00" from="WW" to="CW"/>
    <trip id="378" depart="393.00" from="NN" to="CS"/>
    <trip id="379" depart="393.00" from="WW" to="CW"/>
    <trip id="380" depart="393.00" from="NN" to="CN"/>
    <trip id="381" depart="394.00" from="EE" to="CS"/>
    <trip id="382" depart="396.00" from="WW" to="CW"/>
    <trip id="383" depart="396.00" from="NN" to="CE"/>
    <trip id="384" depart="397.00" from="SS" to="CW"/>
    <trip id="385" depart="397.00" from="SS" to="CE"/>
    <trip id="386" depart="398.00" from="WW" to="CS"/>
    <trip id="387" depart="398.00" from="WW" to="CW"/>
    <trip id="388" depart="399.00" from="EE" to="CE"/>
    <trip id="389" depart="399.00" from="SS" to="CN"/>
    <trip id="390" depart="401.00" from="EE" to="CW"/>
    <trip id="391" depart="402.00" from="EE" to="CN"/>
    <trip id="392" depart="403.00" from="EE" to="CS"/>
    <trip id="393" depart="404.00" from="WW" to="CN"/>
    <trip id="394" depart="404.00" from="EE" to="CN"/>
    <trip id="395" depart="405.00" from="NN" to="CN"/>
    <trip id="396" depart="406.00" from="EE" to="CW"/>
    <trip id="397" depart="406.00" from="WW" to="CN"/>
    <trip id="398" depart="408.00" from="EE" to="CW"/>
    <trip id="399" depart="408.00" from="WW" to="CW"/>
    <trip id="400" depart="408.00" from="NN" to="CE"/>
    <trip id="401" depart="409.00" from="SS" to="CE"/>
    <trip id="402" depart="410.00" from="NN" to="CW"/>
    <trip id="403" depart="410.00" from="SS" to="CE"/>
    <trip id="404" depart="411.00" from="NN" to="CE"/>
    <trip id="405" depart="411.00" from="WW" to="CS"/>
    <trip id="406" depart="413.00" from="NN" to="CE"/>
    <trip id="407" depart="414.00" from="WW" to="CS"/>
    <trip id="408" depart="415.00" from="SS" to="CN"/>
    <trip id="409" depart="415.00" from="WW" to="CE"/>
    <trip id="410" depart="416.00" from="SS" to="CW"/>
    <trip id="411" depart="417.00" from="SS" to="CW"/>
    <trip id="412" depart="418.00" from="WW" to="CW"/>
    <trip id="413" depart="418.00" from="EE" to="CE"/>
    <trip id="414" depart="419.00" from="WW" to="CE"/>
    <trip id="415" depart="419.00" from="SS" to="CW"/>
    <trip id="416" depart="420.00" from="SS" to="CW"/>
    <trip id="417" depart="421.00" from="NN" to="CE"/>
    <trip id="418" depart="421.00" from="WW" to="CW"/>
    <trip id="419" depart="422.00" from="WW" to="CS"/>
    <trip id="420" depart="423.00" from="NN" to="CS"/>
    <trip id="421" depart="423.00" from="SS" to="CW"/>
    <trip id="422" depart="424.00" from="SS" to="CW"/>
    <trip id="423" depart="425.00" from="SS" to="CE"/>
    <trip id="424" depart="426.00" from="WW" to="CE"/>
    <trip id="425" depart="427.00" from="NN" to="CE"/>
    <trip id="426" depart="427.00" from="NN" to="CS"/>
    <trip id="427" depart="428.00" from="NN" to="CW"/>
    <trip id="428" depart="429.00" from="EE" to="CW"/>
    <trip id="429" depart="430.00" from="EE" to="CN"/>
    <trip id="430" depart="431.00" from="SS" to="CS"/>
    <trip id="431" depart="431.00" from="WW" to="CE"/>
    <trip id="432" depart="431.00" from="EE" to="CE"/>
    <trip id="433" depart="432.00" from="SS" to="CS"/>
    <trip id="434" depart="433.00" from="SS" to="CW"/>
    <trip id="435" depart="433.00" from="NN" to="CN"/>
    <trip id="436" depart="434.00" from="EE" to="CE"/>
    <trip id="437" depart="434.00" from="WW" to="CN"/>
    <trip id="438" depart="435.00" from="SS" to="CE"/>
    <trip id="439" depart="436.00" from="WW" to="CS"/>
    <trip id="440" depart="437.00" from="NN" to="CS"/>
    <trip id="441" depart="439.00" from="WW" to="CS"/>
    <trip id="442" depart="440.00" from="WW" to="CE"/>
    <trip id="443" depart="441.00" from="NN" to="CW"/>
    <trip id="444" depart="443.00" from="NN" to="CN"/>
    <trip id="445" depart="445.00" from="SS" to="CW"/>
    <trip id="446" depart="445.00" from="NN" to="CS"/>
    <trip id="447" depart="447.00" from="NN" to="CE"/>
    <trip id="448" depart="447.00" from="WW" to="CN"/>
    <trip id="449" depart="448.00" from="WW" to="CN"/>
    <trip id="450" depart="449.00" from="WW" to="CE"/>
    <trip id="451" depart="450.00" from="EE" to="CW"/>
    <trip id="452" depart="452.00" from="NN" to="CS"/>
    <trip id="453" depart="452.00" from="WW" to="CW"/>
    <trip id="454" depart="452.00" from="EE" to="CW"/>
    <trip id="455" depart="454.00" from="EE" to="CN"/>
    <trip id="456" depart="454.00" from="WW" to="CS"/>
    <trip id="457" depart="455.00" from="WW" to="CS"/>
    <trip id="458" depart="456.00" from="SS" to="CW"/>
    <trip id="459" depart="457.00" from="WW" to="CW"/>
    <trip id="460" depart="457.00" from="WW" to="CS"/>
    <trip id="461" depart="457.00" from="NN" to="CW"/>
    <trip id="462" depart="460.00" from="SS" to="CS"/>
    <trip id="463" depart="461.00" from="EE" to="CW"/>
    <trip id="464" depart="462.00" from="WW" to="CW"/>
    <trip id="465" depart="465.00" from="SS" to="CS"/>
    <trip id="466" depart="465.00" from="SS" to="CE"/>
    <trip id="467" depart="467.00" from="EE" to="CE"/>
    <trip id="468" depart="468.00" from="SS" to="CN"/>
    <trip id="469" depart="468.00" from="NN" to="CS"/>
    <trip id="470" depart="470.00" from="WW" to="CS"/>
    <trip id="471" depart="471.00" from="WW" to="CE"/>
    <trip id="472" depart="473.00" from="SS" to="CE"/>
    <trip id="473" depart="474.00" from="WW" to="CN"/>
    <trip id="474" depart="474.00" from="SS" to="CS"/>
    <trip id="475" depart="475.00" from="EE" to="CN"/>
    <trip id="476" depart="475.00" from="NN" to="CW"/>
    <trip id="477" depart="475.00" from="SS" to="CS"/>
    <trip id="478" depart="476.00" from="NN" to="CS"/>
    <trip id="479" depart="476.00" from="WW" to="CN"/>
    <trip id="480" depart="478.00" from="WW" to="CW"/>
    <trip id="481" depart="479.00" from="SS" to="CS"/>
    <trip id="482" depart="479.00" from="NN" to="CS"/>
    <trip id="483" depart="479.00" from="WW" to="CN"/>
    <trip id="484" depart="480.00" from="WW" to="CS"/>
    <trip id="485" depart="480.00" from="SS" to="CN"/>
    <trip id="486" depart="481.00" from="SS" to="CS"/>
    <trip id="487" depart="482.00" from="WW" to="CE"/>
    <trip id="488" depart="483.00" from="EE" to="CE"/>
    <trip id="489" depart="483.00" from="EE" to="CN"/>
    <trip id="490" depart="484.00" from="NN" to="CE"/>
    <trip id="491" depart="484.00" from="SS" to="CW"/>
    <trip id="492" depart="485.00" from="EE" to="CS"/>
    <trip id="493" depart="485.00" from="NN" to="CE"/>
    <trip id="494" depart="486.00" from="EE" to="CE"/>
    <trip id="495" depart="487.00" from="WW" to="CE"/>
    <trip id="496" depart="488.00" from="NN" to="CN"/>
    <trip id="497" depart="488.00" from="WW" to="CE"/>
    <trip id="498" depart="490.00" from="SS" to="CE"/>
    <trip id="499" depart="491.00" from="NN" to="CS"/>
    <trip id="500" depart="491.00" from="NN" to="CN"/>
    <trip id="501" depart="491.00" from="SS" to="CW"/>
    <trip id="502" depart="492.00" from="WW" to="CE"/>
    <trip id="503" depart="492.00" from="NN" to="CN"/>
    <trip id="504" depart="494.00" from="SS" to="CE"/>
    <trip id="505" depart="496.00" from="SS" to="CE"/>
    <trip id="506" depart="497.00" from="NN" to="CE"/>
    <trip id="507" depart="497.00" from="EE" to="CS"/>
    <trip id="508" depart="499.00" from="NN" to="CS"/>
    <trip id="509" depart="499.00" from="NN" to="CS"/>
    <trip id="510" depart="499.00" from="EE" to="CS"/>
</routes>
