<?xml version="1.0" encoding="UTF-8"?>
<!-- generated on 2021-04-14 15:18:27.762337 by $Id$ v1_7_0+1095-7111e26d53
  options: -n sumo/networks/cross5_LFR_exits.net.xml -o sumo/demands/vehicles.rou.xml <doubleminus>weights-prefix sumo/demands/edge_weights -b 0 -e 500 -p 3
-->
<routes xmlns:xsi="http://www.w3.org/2001/XMLSchema-instance" xsi:noNamespaceSchemaLocation="http://sumo.dlr.de/xsd/routes_file.xsd">
    <trip id="0" depart="0.00" from="SS" to="CE"/>
    <trip id="1" depart="3.00" from="NN" to="CE"/>
    <trip id="2" depart="6.00" from="SS" to="CS"/>
    <trip id="3" depart="9.00" from="WW" to="CE"/>
    <trip id="4" depart="12.00" from="NN" to="CE"/>
    <trip id="5" depart="15.00" from="EE" to="CS"/>
    <trip id="6" depart="18.00" from="EE" to="CE"/>
    <trip id="7" depart="21.00" from="SS" to="CS"/>
    <trip id="8" depart="24.00" from="EE" to="CS"/>
    <trip id="9" depart="27.00" from="WW" to="CE"/>
    <trip id="10" depart="30.00" from="WW" to="CS"/>
    <trip id="11" depart="33.00" from="NN" to="CE"/>
    <trip id="12" depart="36.00" from="WW" to="CN"/>
    <trip id="13" depart="39.00" from="EE" to="CE"/>
    <trip id="14" depart="42.00" from="WW" to="CS"/>
    <trip id="15" depart="45.00" from="WW" to="CS"/>
    <trip id="16" depart="48.00" from="SS" to="CW"/>
    <trip id="17" depart="51.00" from="NN" to="CS"/>
    <trip id="18" depart="54.00" from="WW" to="CS"/>
    <trip id="19" depart="57.00" from="WW" to="CS"/>
    <trip id="20" depart="60.00" from="SS" to="CE"/>
    <trip id="21" depart="63.00" from="EE" to="CN"/>
    <trip id="22" depart="66.00" from="EE" to="CE"/>
    <trip id="23" depart="69.00" from="EE" to="CN"/>
    <trip id="24" depart="72.00" from="SS" to="CN"/>
    <trip id="25" depart="75.00" from="NN" to="CE"/>
    <trip id="26" depart="78.00" from="NN" to="CW"/>
    <trip id="27" depart="81.00" from="SS" to="CS"/>
    <trip id="28" depart="84.00" from="EE" to="CS"/>
    <trip id="29" depart="87.00" from="EE" to="CN"/>
    <trip id="30" depart="90.00" from="WW" to="CS"/>
    <trip id="31" depart="93.00" from="SS" to="CS"/>
    <trip id="32" depart="96.00" from="WW" to="CW"/>
    <trip id="33" depart="99.00" from="EE" to="CE"/>
    <trip id="34" depart="102.00" from="NN" to="CN"/>
    <trip id="35" depart="105.00" from="EE" to="CW"/>
    <trip id="36" depart="108.00" from="WW" to="CN"/>
    <trip id="37" depart="111.00" from="SS" to="CN"/>
    <trip id="38" depart="114.00" from="WW" to="CN"/>
    <trip id="39" depart="117.00" from="NN" to="CE"/>
    <trip id="40" depart="120.00" from="SS" to="CN"/>
    <trip id="41" depart="123.00" from="SS" to="CW"/>
    <trip id="42" depart="126.00" from="NN" to="CE"/>
    <trip id="43" depart="129.00" from="WW" to="CS"/>
    <trip id="44" depart="132.00" from="EE" to="CE"/>
    <trip id="45" depart="135.00" from="EE" to="CS"/>
    <trip id="46" depart="138.00" from="WW" to="CN"/>
    <trip id="47" depart="141.00" from="EE" to="CN"/>
    <trip id="48" depart="144.00" from="WW" to="CS"/>
    <trip id="49" depart="147.00" from="WW" to="CW"/>
    <trip id="50" depart="150.00" from="EE" to="CS"/>
    <trip id="51" depart="153.00" from="SS" to="CS"/>
    <trip id="52" depart="156.00" from="NN" to="CS"/>
    <trip id="53" depart="159.00" from="EE" to="CN"/>
    <trip id="54" depart="162.00" from="NN" to="CW"/>
    <trip id="55" depart="165.00" from="WW" to="CN"/>
    <trip id="56" depart="168.00" from="SS" to="CE"/>
    <trip id="57" depart="171.00" from="WW" to="CW"/>
    <trip id="58" depart="174.00" from="NN" to="CS"/>
    <trip id="59" depart="177.00" from="SS" to="CE"/>
    <trip id="60" depart="180.00" from="WW" to="CS"/>
    <trip id="61" depart="183.00" from="WW" to="CS"/>
    <trip id="62" depart="186.00" from="EE" to="CN"/>
    <trip id="63" depart="189.00" from="EE" to="CW"/>
    <trip id="64" depart="192.00" from="WW" to="CW"/>
    <trip id="65" depart="195.00" from="NN" to="CE"/>
    <trip id="66" depart="198.00" from="WW" to="CW"/>
    <trip id="67" depart="201.00" from="EE" to="CN"/>
    <trip id="68" depart="204.00" from="EE" to="CW"/>
    <trip id="69" depart="207.00" from="WW" to="CE"/>
    <trip id="70" depart="210.00" from="NN" to="CS"/>
    <trip id="71" depart="213.00" from="NN" to="CW"/>
    <trip id="72" depart="216.00" from="NN" to="CE"/>
    <trip id="73" depart="219.00" from="SS" to="CS"/>
    <trip id="74" depart="222.00" from="EE" to="CN"/>
    <trip id="75" depart="225.00" from="WW" to="CS"/>
    <trip id="76" depart="228.00" from="NN" to="CS"/>
    <trip id="77" depart="231.00" from="EE" to="CE"/>
    <trip id="78" depart="234.00" from="NN" to="CS"/>
    <trip id="79" depart="237.00" from="EE" to="CE"/>
    <trip id="80" depart="240.00" from="EE" to="CS"/>
    <trip id="81" depart="243.00" from="EE" to="CW"/>
    <trip id="82" depart="246.00" from="WW" to="CE"/>
    <trip id="83" depart="249.00" from="EE" to="CS"/>
    <trip id="84" depart="252.00" from="EE" to="CE"/>
    <trip id="85" depart="255.00" from="WW" to="CS"/>
    <trip id="86" depart="258.00" from="NN" to="CW"/>
    <trip id="87" depart="261.00" from="WW" to="CE"/>
    <trip id="88" depart="264.00" from="EE" to="CN"/>
    <trip id="89" depart="267.00" from="NN" to="CN"/>
    <trip id="90" depart="270.00" from="SS" to="CS"/>
    <trip id="91" depart="273.00" from="WW" to="CE"/>
    <trip id="92" depart="276.00" from="NN" to="CN"/>
    <trip id="93" depart="279.00" from="WW" to="CE"/>
    <trip id="94" depart="282.00" from="EE" to="CN"/>
    <trip id="95" depart="285.00" from="NN" to="CN"/>
    <trip id="96" depart="288.00" from="EE" to="CW"/>
    <trip id="97" depart="291.00" from="NN" to="CW"/>
    <trip id="98" depart="294.00" from="SS" to="CE"/>
    <trip id="99" depart="297.00" from="WW" to="CW"/>
    <trip id="100" depart="300.00" from="WW" to="CW"/>
    <trip id="101" depart="303.00" from="WW" to="CE"/>
    <trip id="102" depart="306.00" from="NN" to="CE"/>
    <trip id="103" depart="309.00" from="NN" to="CE"/>
    <trip id="104" depart="312.00" from="NN" to="CW"/>
    <trip id="105" depart="315.00" from="NN" to="CW"/>
    <trip id="106" depart="318.00" from="NN" to="CN"/>
    <trip id="107" depart="321.00" from="WW" to="CW"/>
    <trip id="108" depart="324.00" from="SS" to="CS"/>
    <trip id="109" depart="327.00" from="EE" to="CN"/>
    <trip id="110" depart="330.00" from="WW" to="CS"/>
    <trip id="111" depart="333.00" from="SS" to="CS"/>
    <trip id="112" depart="336.00" from="EE" to="CS"/>
    <trip id="113" depart="339.00" from="SS" to="CW"/>
    <trip id="114" depart="342.00" from="EE" to="CW"/>
    <trip id="115" depart="345.00" from="EE" to="CE"/>
    <trip id="116" depart="348.00" from="SS" to="CS"/>
    <trip id="117" depart="351.00" from="EE" to="CE"/>
    <trip id="118" depart="354.00" from="WW" to="CE"/>
    <trip id="119" depart="357.00" from="SS" to="CS"/>
    <trip id="120" depart="360.00" from="NN" to="CS"/>
    <trip id="121" depart="363.00" from="SS" to="CW"/>
    <trip id="122" depart="366.00" from="EE" to="CS"/>
    <trip id="123" depart="369.00" from="EE" to="CN"/>
    <trip id="124" depart="372.00" from="SS" to="CN"/>
    <trip id="125" depart="375.00" from="NN" to="CW"/>
    <trip id="126" depart="378.00" from="EE" to="CN"/>
    <trip id="127" depart="381.00" from="WW" to="CW"/>
    <trip id="128" depart="384.00" from="EE" to="CE"/>
    <trip id="129" depart="387.00" from="NN" to="CW"/>
    <trip id="130" depart="390.00" from="WW" to="CW"/>
    <trip id="131" depart="393.00" from="NN" to="CE"/>
    <trip id="132" depart="396.00" from="WW" to="CS"/>
    <trip id="133" depart="399.00" from="SS" to="CW"/>
    <trip id="134" depart="402.00" from="SS" to="CE"/>
    <trip id="135" depart="405.00" from="WW" to="CN"/>
    <trip id="136" depart="408.00" from="SS" to="CW"/>
    <trip id="137" depart="411.00" from="EE" to="CE"/>
    <trip id="138" depart="414.00" from="EE" to="CS"/>
    <trip id="139" depart="417.00" from="NN" to="CS"/>
    <trip id="140" depart="420.00" from="SS" to="CE"/>
    <trip id="141" depart="423.00" from="SS" to="CN"/>
    <trip id="142" depart="426.00" from="NN" to="CW"/>
    <trip id="143" depart="429.00" from="WW" to="CE"/>
    <trip id="144" depart="432.00" from="NN" to="CN"/>
    <trip id="145" depart="435.00" from="EE" to="CW"/>
    <trip id="146" depart="438.00" from="SS" to="CN"/>
    <trip id="147" depart="441.00" from="SS" to="CS"/>
    <trip id="148" depart="444.00" from="NN" to="CE"/>
    <trip id="149" depart="447.00" from="EE" to="CW"/>
    <trip id="150" depart="450.00" from="WW" to="CS"/>
    <trip id="151" depart="453.00" from="WW" to="CS"/>
    <trip id="152" depart="456.00" from="EE" to="CE"/>
    <trip id="153" depart="459.00" from="NN" to="CW"/>
    <trip id="154" depart="462.00" from="WW" to="CW"/>
    <trip id="155" depart="465.00" from="WW" to="CE"/>
    <trip id="156" depart="468.00" from="EE" to="CE"/>
    <trip id="157" depart="471.00" from="WW" to="CW"/>
    <trip id="158" depart="474.00" from="NN" to="CS"/>
    <trip id="159" depart="477.00" from="EE" to="CW"/>
    <trip id="160" depart="480.00" from="WW" to="CW"/>
    <trip id="161" depart="483.00" from="WW" to="CW"/>
    <trip id="162" depart="486.00" from="EE" to="CS"/>
    <trip id="163" depart="489.00" from="NN" to="CW"/>
    <trip id="164" depart="492.00" from="WW" to="CW"/>
    <trip id="165" depart="495.00" from="WW" to="CN"/>
    <trip id="166" depart="498.00" from="WW" to="CE"/>
</routes>
