<?xml version="1.0" encoding="UTF-8"?>
<!-- generated on 2021-06-13 11:10:38.893650 by $Id$ v1_7_0+1095-7111e26d53
  options: -n sumo/networks/cross5_LFR_exits.net.xml -o sumo/demands/vehicles.rou.xml <doubleminus>weights-prefix sumo/demands/edge_weights -b 0 -e 500 -p 3 <doubleminus>binomial 5
-->
<routes xmlns:xsi="http://www.w3.org/2001/XMLSchema-instance" xsi:noNamespaceSchemaLocation="http://sumo.dlr.de/xsd/routes_file.xsd">
    <trip id="0" depart="0.00" from="NN" to="CE"/>
    <trip id="1" depart="1.00" from="EE" to="CS"/>
    <trip id="2" depart="1.00" from="EE" to="CS"/>
    <trip id="3" depart="2.00" from="WW" to="CS"/>
    <trip id="4" depart="6.00" from="EE" to="CN"/>
    <trip id="5" depart="11.00" from="NN" to="CN"/>
    <trip id="6" depart="15.00" from="EE" to="CS"/>
    <trip id="7" depart="16.00" from="NN" to="CW"/>
    <trip id="8" depart="16.00" from="SS" to="CS"/>
    <trip id="9" depart="21.00" from="NN" to="CE"/>
    <trip id="10" depart="22.00" from="WW" to="CW"/>
    <trip id="11" depart="35.00" from="WW" to="CW"/>
    <trip id="12" depart="36.00" from="NN" to="CW"/>
    <trip id="13" depart="39.00" from="SS" to="CS"/>
    <trip id="14" depart="48.00" from="WW" to="CN"/>
    <trip id="15" depart="52.00" from="WW" to="CS"/>
    <trip id="16" depart="53.00" from="EE" to="CW"/>
    <trip id="17" depart="58.00" from="SS" to="CN"/>
    <trip id="18" depart="61.00" from="EE" to="CN"/>
    <trip id="19" depart="66.00" from="WW" to="CS"/>
    <trip id="20" depart="70.00" from="NN" to="CN"/>
    <trip id="21" depart="74.00" from="EE" to="CN"/>
    <trip id="22" depart="76.00" from="WW" to="CW"/>
    <trip id="23" depart="77.00" from="EE" to="CW"/>
    <trip id="24" depart="84.00" from="NN" to="CS"/>
    <trip id="25" depart="86.00" from="NN" to="CW"/>
    <trip id="26" depart="88.00" from="NN" to="CS"/>
    <trip id="27" depart="89.00" from="NN" to="CS"/>
    <trip id="28" depart="89.00" from="SS" to="CE"/>
    <trip id="29" depart="90.00" from="NN" to="CE"/>
    <trip id="30" depart="91.00" from="SS" to="CW"/>
    <trip id="31" depart="93.00" from="EE" to="CE"/>
    <trip id="32" depart="95.00" from="NN" to="CS"/>
    <trip id="33" depart="104.00" from="WW" to="CE"/>
    <trip id="34" depart="106.00" from="WW" to="CE"/>
    <trip id="35" depart="113.00" from="SS" to="CN"/>
    <trip id="36" depart="115.00" from="WW" to="CN"/>
    <trip id="37" depart="116.00" from="EE" to="CS"/>
    <trip id="38" depart="121.00" from="NN" to="CS"/>
    <trip id="39" depart="127.00" from="NN" to="CN"/>
    <trip id="40" depart="129.00" from="WW" to="CN"/>
    <trip id="41" depart="147.00" from="SS" to="CS"/>
    <trip id="42" depart="148.00" from="SS" to="CS"/>
    <trip id="43" depart="153.00" from="EE" to="CS"/>
    <trip id="44" depart="155.00" from="WW" to="CN"/>
    <trip id="45" depart="158.00" from="WW" to="CW"/>
    <trip id="46" depart="163.00" from="SS" to="CN"/>
    <trip id="47" depart="172.00" from="SS" to="CN"/>
    <trip id="48" depart="174.00" from="WW" to="CS"/>
    <trip id="49" depart="174.00" from="WW" to="CW"/>
    <trip id="50" depart="179.00" from="NN" to="CN"/>
    <trip id="51" depart="182.00" from="WW" to="CE"/>
    <trip id="52" depart="184.00" from="WW" to="CE"/>
    <trip id="53" depart="185.00" from="EE" to="CW"/>
    <trip id="54" depart="186.00" from="SS" to="CS"/>
    <trip id="55" depart="187.00" from="WW" to="CW"/>
    <trip id="56" depart="188.00" from="NN" to="CN"/>
    <trip id="57" depart="190.00" from="NN" to="CS"/>
    <trip id="58" depart="201.00" from="WW" to="CW"/>
    <trip id="59" depart="203.00" from="WW" to="CS"/>
    <trip id="60" depart="203.00" from="SS" to="CE"/>
    <trip id="61" depart="205.00" from="EE" to="CS"/>
    <trip id="62" depart="208.00" from="NN" to="CS"/>
    <trip id="63" depart="208.00" from="NN" to="CE"/>
    <trip id="64" depart="209.00" from="SS" to="CE"/>
    <trip id="65" depart="210.00" from="EE" to="CW"/>
    <trip id="66" depart="212.00" from="NN" to="CW"/>
    <trip id="67" depart="221.00" from="SS" to="CN"/>
    <trip id="68" depart="221.00" from="WW" to="CE"/>
    <trip id="69" depart="224.00" from="EE" to="CW"/>
    <trip id="70" depart="228.00" from="EE" to="CS"/>
    <trip id="71" depart="236.00" from="NN" to="CW"/>
    <trip id="72" depart="245.00" from="EE" to="CS"/>
    <trip id="73" depart="246.00" from="WW" to="CW"/>
    <trip id="74" depart="248.00" from="EE" to="CN"/>
    <trip id="75" depart="250.00" from="NN" to="CW"/>
    <trip id="76" depart="251.00" from="SS" to="CE"/>
    <trip id="77" depart="255.00" from="WW" to="CN"/>
    <trip id="78" depart="256.00" from="SS" to="CW"/>
    <trip id="79" depart="257.00" from="WW" to="CN"/>
    <trip id="80" depart="258.00" from="EE" to="CE"/>
    <trip id="81" depart="265.00" from="WW" to="CN"/>
    <trip id="82" depart="268.00" from="EE" to="CW"/>
    <trip id="83" depart="275.00" from="SS" to="CW"/>
    <trip id="84" depart="277.00" from="SS" to="CN"/>
    <trip id="85" depart="282.00" from="EE" to="CE"/>
    <trip id="86" depart="287.00" from="EE" to="CS"/>
    <trip id="87" depart="290.00" from="NN" to="CN"/>
    <trip id="88" depart="296.00" from="WW" to="CS"/>
    <trip id="89" depart="297.00" from="NN" to="CW"/>
    <trip id="90" depart="303.00" from="EE" to="CN"/>
    <trip id="91" depart="307.00" from="NN" to="CW"/>
    <trip id="92" depart="310.00" from="WW" to="CE"/>
    <trip id="93" depart="310.00" from="NN" to="CE"/>
    <trip id="94" depart="311.00" from="EE" to="CE"/>
    <trip id="95" depart="322.00" from="NN" to="CS"/>
    <trip id="96" depart="323.00" from="SS" to="CW"/>
    <trip id="97" depart="328.00" from="SS" to="CE"/>
    <trip id="98" depart="335.00" from="SS" to="CS"/>
    <trip id="99" depart="335.00" from="EE" to="CN"/>
    <trip id="100" depart="341.00" from="SS" to="CS"/>
    <trip id="101" depart="344.00" from="NN" to="CW"/>
    <trip id="102" depart="345.00" from="NN" to="CE"/>
    <trip id="103" depart="346.00" from="NN" to="CW"/>
    <trip id="104" depart="350.00" from="EE" to="CN"/>
    <trip id="105" depart="353.00" from="EE" to="CE"/>
    <trip id="106" depart="353.00" from="SS" to="CS"/>
    <trip id="107" depart="354.00" from="SS" to="CN"/>
    <trip id="108" depart="354.00" from="SS" to="CN"/>
    <trip id="109" depart="357.00" from="WW" to="CW"/>
    <trip id="110" depart="366.00" from="WW" to="CW"/>
    <trip id="111" depart="376.00" from="EE" to="CW"/>
    <trip id="112" depart="377.00" from="SS" to="CN"/>
    <trip id="113" depart="378.00" from="SS" to="CE"/>
    <trip id="114" depart="379.00" from="WW" to="CS"/>
    <trip id="115" depart="384.00" from="EE" to="CE"/>
    <trip id="116" depart="386.00" from="EE" to="CW"/>
    <trip id="117" depart="386.00" from="EE" to="CW"/>
    <trip id="118" depart="387.00" from="WW" to="CN"/>
    <trip id="119" depart="391.00" from="NN" to="CW"/>
    <trip id="120" depart="392.00" from="NN" to="CW"/>
    <trip id="121" depart="395.00" from="NN" to="CN"/>
    <trip id="122" depart="397.00" from="NN" to="CE"/>
    <trip id="123" depart="400.00" from="NN" to="CN"/>
    <trip id="124" depart="415.00" from="WW" to="CS"/>
    <trip id="125" depart="416.00" from="NN" to="CS"/>
    <trip id="126" depart="418.00" from="EE" to="CN"/>
    <trip id="127" depart="424.00" from="SS" to="CE"/>
    <trip id="128" depart="425.00" from="EE" to="CW"/>
    <trip id="129" depart="433.00" from="NN" to="CE"/>
    <trip id="130" depart="435.00" from="WW" to="CN"/>
    <trip id="131" depart="438.00" from="SS" to="CS"/>
    <trip id="132" depart="442.00" from="NN" to="CN"/>
    <trip id="133" depart="450.00" from="WW" to="CS"/>
    <trip id="134" depart="451.00" from="SS" to="CE"/>
    <trip id="135" depart="453.00" from="EE" to="CW"/>
    <trip id="136" depart="454.00" from="WW" to="CE"/>
    <trip id="137" depart="457.00" from="NN" to="CE"/>
    <trip id="138" depart="458.00" from="SS" to="CW"/>
    <trip id="139" depart="461.00" from="SS" to="CN"/>
    <trip id="140" depart="467.00" from="WW" to="CW"/>
    <trip id="141" depart="471.00" from="EE" to="CN"/>
    <trip id="142" depart="471.00" from="EE" to="CW"/>
    <trip id="143" depart="475.00" from="SS" to="CS"/>
    <trip id="144" depart="475.00" from="EE" to="CN"/>
    <trip id="145" depart="479.00" from="WW" to="CN"/>
    <trip id="146" depart="479.00" from="SS" to="CS"/>
    <trip id="147" depart="482.00" from="WW" to="CE"/>
    <trip id="148" depart="487.00" from="EE" to="CS"/>
    <trip id="149" depart="490.00" from="NN" to="CE"/>
    <trip id="150" depart="491.00" from="SS" to="CW"/>
    <trip id="151" depart="492.00" from="WW" to="CS"/>
</routes>
