<?xml version="1.0" encoding="UTF-8"?>

<!-- generated on Thu 04 Mar 2021 12:31:32 PM CET by Eclipse SUMO netedit Version v1_7_0+1095-7111e26d53
<configuration xmlns:xsi="http://www.w3.org/2001/XMLSchema-instance" xsi:noNamespaceSchemaLocation="http://sumo.dlr.de/xsd/netconvertConfiguration.xsd">

    <input>
        <sumo-net-file value="cross2.net.xml"/>
    </input>

    <output>
        <output-file value="cross2.net.xml"/>
    </output>

    <processing>
        <geometry.min-radius.fix.railways value="false"/>
        <geometry.max-grade.fix value="false"/>
        <offset.disable-normalization value="true"/>
        <lefthand value="false"/>
    </processing>

    <junctions>
        <no-internal-links value="false"/>
        <no-turnarounds value="true"/>
        <junctions.corner-detail value="5"/>
        <junctions.limit-turn-speed value="5.5"/>
        <rectangular-lane-cut value="false"/>
    </junctions>

    <pedestrian>
        <walkingareas value="true"/>
    </pedestrian>

    <report>
        <aggregate-warnings value="5"/>
    </report>

</configuration>
-->

<net version="1.6" junctionCornerDetail="5" walkingareas="true" limitTurnSpeed="5.50" xmlns:xsi="http://www.w3.org/2001/XMLSchema-instance" xsi:noNamespaceSchemaLocation="http://sumo.dlr.de/xsd/net_file.xsd">

    <location netOffset="0.00,0.00" convBoundary="-200.00,-200.00,200.00,200.00" origBoundary="-10000000000.00,-10000000000.00,10000000000.00,10000000000.00" projParameter="!"/>

    <edge id=":C_0" function="internal">
        <lane id=":C_0_0" index="0" allow="bicycle" speed="6.68" length="9.97" width="2.00" shape="-7.40,11.90 -7.68,8.53 -8.52,6.13 -9.93,4.68 -11.90,4.20"/>
    </edge>
    <edge id=":C_1" function="internal">
        <lane id=":C_1_0" index="0" allow="bicycle" speed="13.89" length="24.08" width="2.00" shape="-7.40,11.90 -6.90,4.80 -5.80,0.00 -4.70,-4.80 -4.20,-11.90"/>
    </edge>
    <edge id=":C_2" function="internal">
        <lane id=":C_2_0" index="0" disallow="pedestrian bicycle" speed="9.21" length="8.54" shape="-4.80,16.90 -4.80,11.90 -5.15,8.38"/>
    </edge>
    <edge id=":C_3" function="internal">
        <lane id=":C_3_0" index="0" disallow="pedestrian bicycle" speed="13.89" length="29.08" shape="-4.80,16.90 -4.80,11.90 -4.30,4.80 -3.20,0.00 -2.10,-4.80 -1.60,-11.90"/>
    </edge>
    <edge id=":C_4" function="internal">
        <lane id=":C_4_0" index="0" disallow="pedestrian bicycle" speed="10.81" length="13.93" shape="-1.60,16.90 -1.60,11.90 -0.76,5.99 0.77,3.45"/>
    </edge>
    <edge id=":C_20" function="internal">
        <lane id=":C_20_0" index="0" disallow="pedestrian bicycle" speed="9.21" length="10.59" shape="-5.15,8.38 -5.24,7.39 -6.57,4.18 -8.79,2.24 -11.90,1.60"/>
    </edge>
    <edge id=":C_21" function="internal">
        <lane id=":C_21_0" index="0" disallow="pedestrian bicycle" speed="10.81" length="12.84" shape="0.77,3.45 1.77,1.77 5.99,-0.76 11.90,-1.60"/>
    </edge>
    <edge id=":C_5" function="internal">
        <lane id=":C_5_0" index="0" allow="bicycle" speed="6.68" length="4.04" width="2.00" shape="11.90,7.40 8.53,7.68 7.91,7.90"/>
    </edge>
    <edge id=":C_6" function="internal">
        <lane id=":C_6_0" index="0" allow="bicycle" speed="13.89" length="24.08" width="2.00" shape="11.90,7.40 4.80,6.90 0.00,5.80 -4.80,4.70 -11.90,4.20"/>
    </edge>
    <edge id=":C_7" function="internal">
        <lane id=":C_7_0" index="0" disallow="pedestrian bicycle" speed="9.21" length="8.54" shape="16.90,4.80 11.90,4.80 8.38,5.15"/>
    </edge>
    <edge id=":C_8" function="internal">
        <lane id=":C_8_0" index="0" disallow="pedestrian bicycle" speed="13.89" length="29.08" shape="16.90,4.80 11.90,4.80 4.80,4.30 0.00,3.20 -4.80,2.10 -11.90,1.60"/>
    </edge>
    <edge id=":C_9" function="internal">
        <lane id=":C_9_0" index="0" disallow="pedestrian bicycle" speed="10.81" length="13.93" shape="16.90,1.60 11.90,1.60 5.99,0.76 3.45,-0.77"/>
    </edge>
    <edge id=":C_22" function="internal">
        <lane id=":C_22_0" index="0" allow="bicycle" speed="6.68" length="5.93" width="2.00" shape="7.91,7.90 6.12,8.52 4.68,9.93 4.20,11.90"/>
    </edge>
    <edge id=":C_23" function="internal">
        <lane id=":C_23_0" index="0" disallow="pedestrian bicycle" speed="9.21" length="10.59" shape="8.38,5.15 7.39,5.24 4.17,6.57 2.24,8.79 1.60,11.90"/>
    </edge>
    <edge id=":C_24" function="internal">
        <lane id=":C_24_0" index="0" disallow="pedestrian bicycle" speed="10.81" length="12.84" shape="3.45,-0.77 1.77,-1.77 -0.76,-5.99 -1.60,-11.90"/>
    </edge>
    <edge id=":C_10" function="internal">
        <lane id=":C_10_0" index="0" allow="bicycle" speed="6.68" length="4.04" width="2.00" shape="7.40,-11.90 7.68,-8.53 7.90,-7.91"/>
    </edge>
    <edge id=":C_11" function="internal">
        <lane id=":C_11_0" index="0" allow="bicycle" speed="13.89" length="24.08" width="2.00" shape="7.40,-11.90 6.90,-4.80 5.80,-0.00 4.70,4.80 4.20,11.90"/>
    </edge>
    <edge id=":C_12" function="internal">
        <lane id=":C_12_0" index="0" disallow="pedestrian bicycle" speed="9.21" length="8.54" shape="4.80,-16.90 4.80,-11.90 5.15,-8.38"/>
    </edge>
    <edge id=":C_13" function="internal">
        <lane id=":C_13_0" index="0" disallow="pedestrian bicycle" speed="13.89" length="29.08" shape="4.80,-16.90 4.80,-11.90 4.30,-4.80 3.20,-0.00 2.10,4.80 1.60,11.90"/>
    </edge>
    <edge id=":C_14" function="internal">
        <lane id=":C_14_0" index="0" disallow="pedestrian bicycle" speed="10.81" length="13.93" shape="1.60,-16.90 1.60,-11.90 0.76,-5.99 -0.77,-3.45"/>
    </edge>
    <edge id=":C_25" function="internal">
        <lane id=":C_25_0" index="0" allow="bicycle" speed="6.68" length="5.93" width="2.00" shape="7.90,-7.91 8.52,-6.12 9.93,-4.68 11.90,-4.20"/>
    </edge>
    <edge id=":C_26" function="internal">
        <lane id=":C_26_0" index="0" disallow="pedestrian bicycle" speed="9.21" length="10.59" shape="5.15,-8.38 5.24,-7.39 6.57,-4.17 8.79,-2.24 11.90,-1.60"/>
    </edge>
    <edge id=":C_27" function="internal">
        <lane id=":C_27_0" index="0" disallow="pedestrian bicycle" speed="10.81" length="12.84" shape="-0.77,-3.45 -1.77,-1.78 -5.99,0.76 -11.90,1.60"/>
    </edge>
    <edge id=":C_15" function="internal">
        <lane id=":C_15_0" index="0" allow="bicycle" speed="6.68" length="4.04" width="2.00" shape="-11.90,-7.40 -8.53,-7.68 -7.91,-7.90"/>
    </edge>
    <edge id=":C_16" function="internal">
        <lane id=":C_16_0" index="0" allow="bicycle" speed="13.89" length="24.08" width="2.00" shape="-11.90,-7.40 -4.80,-6.90 -0.00,-5.80 4.80,-4.70 11.90,-4.20"/>
    </edge>
    <edge id=":C_17" function="internal">
        <lane id=":C_17_0" index="0" disallow="pedestrian bicycle" speed="9.21" length="8.54" shape="-16.90,-4.80 -11.90,-4.80 -8.38,-5.15"/>
    </edge>
    <edge id=":C_18" function="internal">
        <lane id=":C_18_0" index="0" disallow="pedestrian bicycle" speed="13.89" length="29.08" shape="-16.90,-4.80 -11.90,-4.80 -4.80,-4.30 -0.00,-3.20 4.80,-2.10 11.90,-1.60"/>
    </edge>
    <edge id=":C_19" function="internal">
        <lane id=":C_19_0" index="0" disallow="pedestrian bicycle" speed="10.81" length="13.93" shape="-16.90,-1.60 -11.90,-1.60 -5.99,-0.76 -3.45,0.77"/>
    </edge>
    <edge id=":C_28" function="internal">
        <lane id=":C_28_0" index="0" allow="bicycle" speed="6.68" length="5.93" width="2.00" shape="-7.91,-7.90 -6.12,-8.52 -4.68,-9.93 -4.20,-11.90"/>
    </edge>
    <edge id=":C_29" function="internal">
        <lane id=":C_29_0" index="0" disallow="pedestrian bicycle" speed="9.21" length="10.59" shape="-8.38,-5.15 -7.39,-5.24 -4.18,-6.57 -2.24,-8.79 -1.60,-11.90"/>
    </edge>
    <edge id=":C_30" function="internal">
        <lane id=":C_30_0" index="0" disallow="pedestrian bicycle" speed="10.81" length="12.84" shape="-3.45,0.77 -1.78,1.77 0.76,5.99 1.60,11.90"/>
    </edge>
    <edge id=":C_c0" function="crossing" crossingEdges="CN NC">
        <lane id=":C_c0_0" index="0" allow="pedestrian" speed="1.00" length="13.60" width="4.00" shape="5.20,9.90 -8.40,9.90"/>
    </edge>
    <edge id=":C_c1" function="crossing" crossingEdges="CE EC">
        <lane id=":C_c1_0" index="0" allow="pedestrian" speed="1.00" length="13.60" width="4.00" shape="9.90,-5.20 9.90,8.40"/>
    </edge>
    <edge id=":C_c2" function="crossing" crossingEdges="CS SC">
        <lane id=":C_c2_0" index="0" allow="pedestrian" speed="1.00" length="13.60" width="4.00" shape="-5.20,-9.90 8.40,-9.90"/>
    </edge>
    <edge id=":C_w0" function="walkingarea">
        <lane id=":C_w0_0" index="0" allow="pedestrian" speed="1.00" length="4.57" width="4.00" shape="-9.95,7.20 -11.90,5.20 -11.90,7.20 -10.40,11.90 -8.40,11.90 -8.50,9.85 -8.79,8.18 -9.27,6.87 -9.96,5.94 -10.83,5.39"/>
    </edge>
    <edge id=":C_w1" function="walkingarea">
        <lane id=":C_w1_0" index="0" allow="pedestrian" speed="1.00" length="4.57" width="4.00" shape="5.20,11.90 7.20,11.90 11.90,10.40 11.90,8.40 9.85,8.50 8.18,8.79 6.87,9.27 5.94,9.96 5.39,10.83"/>
    </edge>
    <edge id=":C_w2" function="walkingarea">
        <lane id=":C_w2_0" index="0" allow="pedestrian" speed="1.00" length="4.57" width="4.00" shape="11.90,-5.20 11.90,-7.20 10.40,-11.90 8.40,-11.90 8.50,-9.85 8.79,-8.18 9.27,-6.87 9.96,-5.94 10.83,-5.39"/>
    </edge>
    <edge id=":C_w3" function="walkingarea">
        <lane id=":C_w3_0" index="0" allow="pedestrian" speed="1.00" length="5.06" width="4.00" shape="-5.20,-11.90 -7.20,-11.90 -11.90,-10.40 -11.90,-8.40 -9.85,-8.50 -8.18,-8.79 -6.88,-9.27 -5.94,-9.96 -5.39,-10.83"/>
    </edge>
    <edge id=":E_0" function="internal">
        <lane id=":E_0_0" index="0" disallow="pedestrian bicycle" speed="3.65" length="4.67" shape="200.00,-1.60 201.20,-0.80 201.60,0.00 201.20,0.80 200.00,1.60"/>
    </edge>
    <edge id=":E_w0" function="walkingarea">
        <lane id=":E_w0_0" index="0" allow="pedestrian" speed="1.00" length="15.60" width="2.00" shape="200.00,8.40 200.00,10.40 200.00,-7.20 200.00,-5.20"/>
    </edge>
    <edge id=":N_0" function="internal">
        <lane id=":N_0_0" index="0" disallow="pedestrian bicycle" speed="3.65" length="4.67" shape="1.60,200.00 0.80,201.20 0.00,201.60 -0.80,201.20 -1.60,200.00"/>
    </edge>
    <edge id=":N_w0" function="walkingarea">
        <lane id=":N_w0_0" index="0" allow="pedestrian" speed="1.00" length="15.60" width="2.00" shape="-8.40,200.00 -10.40,200.00 7.20,200.00 5.20,200.00"/>
    </edge>
    <edge id=":S_0" function="internal">
        <lane id=":S_0_0" index="0" disallow="pedestrian bicycle" speed="3.65" length="4.67" shape="-1.60,-200.00 -0.80,-201.20 0.00,-201.60 0.80,-201.20 1.60,-200.00"/>
    </edge>
    <edge id=":S_w0" function="walkingarea">
        <lane id=":S_w0_0" index="0" allow="pedestrian" speed="1.00" length="15.60" width="2.00" shape="8.40,-200.00 10.40,-200.00 -7.20,-200.00 -5.20,-200.00"/>
    </edge>
    <edge id=":W_0" function="internal">
        <lane id=":W_0_0" index="0" disallow="pedestrian bicycle" speed="3.65" length="4.67" shape="-200.00,1.60 -201.20,0.80 -201.60,0.00 -201.20,-0.80 -200.00,-1.60"/>
    </edge>
    <edge id=":W_w0" function="walkingarea">
        <lane id=":W_w0_0" index="0" allow="pedestrian" speed="1.00" length="15.60" width="2.00" shape="-200.00,-8.40 -200.00,-10.40 -200.00,7.20 -200.00,5.20"/>
    </edge>
    <edge id=":gneJ0_0" function="internal">
        <lane id=":gneJ0_0_0" index="0" allow="pedestrian" speed="13.89" length="0.10" width="2.00" shape="-100.00,6.20 -100.00,6.20"/>
        <lane id=":gneJ0_0_1" index="1" allow="bicycle" speed="13.89" length="0.10" width="2.00" shape="-100.00,4.20 -100.00,4.20"/>
        <lane id=":gneJ0_0_2" index="2" disallow="pedestrian bicycle" speed="13.89" length="0.10" shape="-100.00,1.60 -100.00,1.60"/>
    </edge>
    <edge id=":gneJ0_3" function="internal">
        <lane id=":gneJ0_3_0" index="0" allow="pedestrian" speed="13.89" length="2.50" width="2.00" shape="-100.00,-9.40 -100.00,-9.40"/>
        <lane id=":gneJ0_3_1" index="1" allow="bicycle" speed="13.89" length="2.50" width="2.00" shape="-100.00,-7.40 -100.00,-7.40"/>
        <lane id=":gneJ0_3_2" index="2" disallow="pedestrian bicycle" speed="13.89" length="2.50" shape="-105.00,-4.80 -100.00,-4.80 -100.00,-4.80"/>
        <lane id=":gneJ0_3_3" index="3" disallow="pedestrian bicycle" speed="13.89" length="2.50" shape="-105.00,-1.60 -100.00,-1.60 -100.00,-1.60"/>
    </edge>
    <edge id=":gneJ0_w0" function="walkingarea">
        <lane id=":gneJ0_w0_0" index="0" allow="pedestrian" speed="1.00" length="0.10" width="2.00" shape="-100.00,5.20 -100.00,7.20 -100.00,7.20 -100.00,5.20"/>
    </edge>
    <edge id=":gneJ0_w1" function="walkingarea">
        <lane id=":gneJ0_w1_0" index="0" allow="pedestrian" speed="1.00" length="0.10" width="2.00" shape="-100.00,-8.40 -100.00,-10.40 -100.00,-10.40 -100.00,-8.40"/>
    </edge>

    <edge id="CE" from="C" to="E" priority="-1">
        <lane id="CE_0" index="0" allow="pedestrian" speed="13.89" length="188.10" width="2.00" shape="11.90,-6.20 200.00,-6.20"/>
        <lane id="CE_1" index="1" allow="bicycle" speed="13.89" length="188.10" width="2.00" shape="11.90,-4.20 200.00,-4.20"/>
        <lane id="CE_2" index="2" disallow="pedestrian bicycle" speed="13.89" length="188.10" shape="11.90,-1.60 200.00,-1.60"/>
    </edge>
    <edge id="CN" from="C" to="N" priority="-1" length="188.10">
        <lane id="CN_0" index="0" allow="pedestrian" speed="13.89" length="188.10" width="2.00" shape="6.20,11.90 6.20,200.00"/>
        <lane id="CN_1" index="1" allow="bicycle" speed="13.89" length="188.10" width="2.00" shape="4.20,11.90 4.20,200.00"/>
        <lane id="CN_2" index="2" disallow="pedestrian bicycle" speed="13.89" length="188.10" shape="1.60,11.90 1.60,200.00"/>
    </edge>
    <edge id="CS" from="C" to="S" priority="-1">
        <lane id="CS_0" index="0" allow="pedestrian" speed="13.89" length="188.10" width="2.00" shape="-6.20,-11.90 -6.20,-200.00"/>
        <lane id="CS_1" index="1" allow="bicycle" speed="13.89" length="188.10" width="2.00" shape="-4.20,-11.90 -4.20,-200.00"/>
        <lane id="CS_2" index="2" disallow="pedestrian bicycle" speed="13.89" length="188.10" shape="-1.60,-11.90 -1.60,-200.00"/>
    </edge>
    <edge id="CW" from="C" to="gneJ0" priority="-1">
        <lane id="CW_0" index="0" allow="pedestrian" speed="13.89" length="88.10" width="2.00" shape="-11.90,6.20 -100.00,6.20"/>
        <lane id="CW_1" index="1" allow="bicycle" speed="13.89" length="88.10" width="2.00" shape="-11.90,4.20 -100.00,4.20"/>
        <lane id="CW_2" index="2" disallow="pedestrian bicycle" speed="13.89" length="88.10" shape="-11.90,1.60 -100.00,1.60"/>
    </edge>
    <edge id="CW.100" from="gneJ0" to="W" priority="-1">
        <lane id="CW.100_0" index="0" allow="pedestrian" speed="13.89" length="100.00" width="2.00" shape="-100.00,6.20 -200.00,6.20"/>
        <lane id="CW.100_1" index="1" allow="bicycle" speed="13.89" length="100.00" width="2.00" shape="-100.00,4.20 -200.00,4.20"/>
        <lane id="CW.100_2" index="2" disallow="pedestrian bicycle" speed="13.89" length="100.00" shape="-100.00,1.60 -200.00,1.60"/>
    </edge>
    <edge id="EC" from="E" to="C" priority="-1">
        <lane id="EC_0" index="0" allow="pedestrian" speed="13.89" length="185.60" width="2.00" shape="200.00,9.40 11.90,9.40"/>
        <lane id="EC_1" index="1" allow="bicycle" speed="13.89" length="185.60" width="2.00" shape="200.00,7.40 11.90,7.40"/>
        <lane id="EC_2" index="2" disallow="pedestrian bicycle" speed="13.89" length="185.60" endOffset="5.00" shape="200.00,4.80 16.90,4.80"/>
        <lane id="EC_3" index="3" disallow="pedestrian bicycle" speed="13.89" length="185.60" endOffset="5.00" shape="200.00,1.60 16.90,1.60"/>
    </edge>
    <edge id="NC" from="N" to="C" priority="-1" length="188.10">
        <lane id="NC_0" index="0" allow="pedestrian" speed="13.89" length="185.60" width="2.00" shape="-9.40,200.00 -9.40,11.90"/>
        <lane id="NC_1" index="1" allow="bicycle" speed="13.89" length="185.60" width="2.00" shape="-7.40,200.00 -7.40,11.90"/>
        <lane id="NC_2" index="2" disallow="pedestrian bicycle" speed="13.89" length="185.60" endOffset="5.00" shape="-4.80,200.00 -4.80,16.90"/>
        <lane id="NC_3" index="3" disallow="pedestrian bicycle" speed="13.89" length="185.60" endOffset="5.00" shape="-1.60,200.00 -1.60,16.90"/>
    </edge>
    <edge id="SC" from="S" to="C" priority="-1">
        <lane id="SC_0" index="0" allow="pedestrian" speed="13.89" length="185.60" width="2.00" shape="9.40,-200.00 9.40,-11.90"/>
        <lane id="SC_1" index="1" allow="bicycle" speed="13.89" length="185.60" width="2.00" shape="7.40,-200.00 7.40,-11.90"/>
        <lane id="SC_2" index="2" disallow="pedestrian bicycle" speed="13.89" length="185.60" endOffset="5.00" shape="4.80,-200.00 4.80,-16.90"/>
        <lane id="SC_3" index="3" disallow="pedestrian bicycle" speed="13.89" length="185.60" endOffset="5.00" shape="1.60,-200.00 1.60,-16.90"/>
    </edge>
    <edge id="WC" from="W" to="gneJ0" priority="-1">
        <lane id="WC_0" index="0" allow="pedestrian" speed="13.89" length="97.50" width="2.00" shape="-200.00,-9.40 -100.00,-9.40"/>
        <lane id="WC_1" index="1" allow="bicycle" speed="13.89" length="97.50" width="2.00" shape="-200.00,-7.40 -100.00,-7.40"/>
        <lane id="WC_2" index="2" disallow="pedestrian bicycle" speed="13.89" length="97.50" endOffset="5.00" shape="-200.00,-4.80 -105.00,-4.80"/>
        <lane id="WC_3" index="3" disallow="pedestrian bicycle" speed="13.89" length="97.50" endOffset="5.00" shape="-200.00,-1.60 -105.00,-1.60"/>
    </edge>
    <edge id="WC.99" from="gneJ0" to="C" priority="-1">
        <lane id="WC.99_0" index="0" allow="pedestrian" speed="13.89" length="85.60" width="2.00" shape="-100.00,-9.40 -11.90,-9.40"/>
        <lane id="WC.99_1" index="1" allow="bicycle" speed="13.89" length="85.60" width="2.00" shape="-100.00,-7.40 -11.90,-7.40"/>
        <lane id="WC.99_2" index="2" disallow="pedestrian bicycle" speed="13.89" length="85.60" endOffset="5.00" shape="-100.00,-4.80 -16.90,-4.80"/>
        <lane id="WC.99_3" index="3" disallow="pedestrian bicycle" speed="13.89" length="85.60" endOffset="5.00" shape="-100.00,-1.60 -16.90,-1.60"/>
    </edge>

    <tlLogic id="C" type="static" programID="0" offset="0">
        <phase duration="23" state="gGgGgrrrrrgGgGgrrrrrrGr"/>
        <phase duration="10" state="gGgGgrrrrrgGgGgrrrrrrrr"/>
        <phase duration="3"  state="yyyygrrrrryyyygrrrrrrrr"/>
        <phase duration="6"  state="rrrrGrrrrrrrrrGrrrrrrrr"/>
        <phase duration="3"  state="rrrryrrrrrrrrryrrrrrrrr"/>
        <phase duration="23" state="rrrrrgGgGgrrrrrgGgGgGrG"/>
        <phase duration="10" state="rrrrrgGgGgrrrrrgGgGgrrr"/>
        <phase duration="3"  state="rrrrryyyygrrrrryyyygrrr"/>
        <phase duration="6"  state="rrrrrrrrrGrrrrrrrrrGrrr"/>
        <phase duration="3"  state="rrrrrrrrryrrrrrrrrryrrr"/>
    </tlLogic>

    <junction id="C" type="traffic_light" x="0.00" y="0.00" incLanes="NC_0 NC_1 NC_2 NC_3 EC_0 EC_1 EC_2 EC_3 SC_0 SC_1 SC_2 SC_3 WC.99_0 WC.99_1 WC.99_2 WC.99_3 :C_w1_0 :C_w2_0 :C_w3_0" intLanes=":C_0_0 :C_1_0 :C_20_0 :C_3_0 :C_21_0 :C_22_0 :C_6_0 :C_23_0 :C_8_0 :C_24_0 :C_25_0 :C_11_0 :C_26_0 :C_13_0 :C_27_0 :C_28_0 :C_16_0 :C_29_0 :C_18_0 :C_30_0 :C_c0_0 :C_c1_0 :C_c2_0" shape="-10.40,11.90 7.20,11.90 7.72,11.07 8.38,10.77 9.29,10.57 10.46,10.44 11.90,10.40 11.90,-7.20 11.07,-7.72 10.77,-8.38 10.57,-9.29 10.44,-10.46 10.40,-11.90 -7.20,-11.90 -7.72,-11.07 -8.38,-10.77 -9.29,-10.57 -10.46,-10.44 -11.90,-10.40 -11.90,7.20 -11.07,7.72 -10.78,8.38 -10.57,9.29 -10.44,10.46">
        <request index="0"  response="00100000000000000000000" foes="00100000000000001000000" cont="0"/>
        <request index="1"  response="10110101000000000000000" foes="10111111100000101000100" cont="0"/>
        <request index="2"  response="00100000000000000000010" foes="00100000100000101000010" cont="1"/>
        <request index="3"  response="10110100000001000000000" foes="10111110100001101000000" cont="0"/>
        <request index="4"  response="01110000011101000000000" foes="01111000011101101000000" cont="1"/>
        <request index="5"  response="01100000000100000000000" foes="01100000000100000000000" cont="1"/>
        <request index="6"  response="01000000010100000011111" foes="01010000010100010011111" cont="0"/>
        <request index="7"  response="01100000010100001000000" foes="01110000010100001000000" cont="1"/>
        <request index="8"  response="01000000110100000011110" foes="01010000110100000011110" cont="0"/>
        <request index="9"  response="11001110110100000011000" foes="11001110110100000011000" cont="1"/>
        <request index="10" response="11000000000000000000000" foes="11000010000000000000000" cont="1"/>
        <request index="11" response="10100000000001010100000" foes="10101010001001111110000" cont="0"/>
        <request index="12" response="11000000000100000000000" foes="11001010000100000010000" cont="1"/>
        <request index="13" response="10110000000001010000000" foes="10111010000001111010000" cont="0"/>
        <request index="14" response="10010000000001000001110" foes="10011010000001100001110" cont="1"/>
        <request index="15" response="10000000000000000000010" foes="10000000000000000000010" cont="1"/>
        <request index="16" response="01000000111110000001010" foes="01000100111111000001010" cont="0"/>
        <request index="17" response="10000010000000000001010" foes="10000010000001000001010" cont="1"/>
        <request index="18" response="01000000111100000011010" foes="01000000111101000011010" cont="0"/>
        <request index="19" response="00100000110000111011010" foes="00100000110000111011010" cont="1"/>
        <request index="20" response="00000000000000000000000" foes="00010000010100010111111" cont="0"/>
        <request index="21" response="00000000000000000000000" foes="00001010001011111110000" cont="0"/>
        <request index="22" response="00000000000000000000000" foes="00000101111111000001010" cont="0"/>
    </junction>
    <junction id="E" type="unregulated" x="200.00" y="0.00" incLanes="CE_0 CE_1 CE_2" intLanes=":E_0_0" shape="200.00,0.00 200.00,-7.20 200.00,0.00"/>
    <junction id="N" type="unregulated" x="0.00" y="200.00" incLanes="CN_0 CN_1 CN_2" intLanes=":N_0_0" shape="0.00,200.00 7.20,200.00 0.00,200.00"/>
    <junction id="S" type="unregulated" x="0.00" y="-200.00" incLanes="CS_0 CS_1 CS_2" intLanes=":S_0_0" shape="0.00,-200.00 -7.20,-200.00 0.00,-200.00"/>
    <junction id="W" type="unregulated" x="-200.00" y="0.00" incLanes="CW.100_0 CW.100_1 CW.100_2" intLanes=":W_0_0" shape="-200.00,0.00 -200.00,7.20 -200.00,0.00"/>
    <junction id="gneJ0" type="priority" x="-100.00" y="0.00" incLanes="CW_0 CW_1 CW_2 WC_0 WC_1 WC_2 WC_3" intLanes=":gneJ0_0_0 :gneJ0_0_1 :gneJ0_0_2 :gneJ0_3_0 :gneJ0_3_1 :gneJ0_3_2 :gneJ0_3_3" shape="-100.00,7.20 -100.00,-10.40 -100.00,7.20">
        <request index="0" response="0000000" foes="0000000" cont="0"/>
        <request index="1" response="0000000" foes="0000000" cont="0"/>
        <request index="2" response="0000000" foes="0000000" cont="0"/>
        <request index="3" response="0000000" foes="0000000" cont="0"/>
        <request index="4" response="0000000" foes="0000000" cont="0"/>
        <request index="5" response="0000000" foes="0000000" cont="0"/>
        <request index="6" response="0000000" foes="0000000" cont="0"/>
    </junction>

    <junction id=":C_20_0" type="internal" x="-5.15" y="8.38" incLanes=":C_2_0 NC_1" intLanes=":C_1_0 :C_6_0 :C_8_0 :C_14_0 :C_c0_0"/>
    <junction id=":C_21_0" type="internal" x="0.77" y="3.45" incLanes=":C_4_0 SC_1 SC_2" intLanes=":C_6_0 :C_8_0 :C_9_0 :C_10_0 :C_11_0 :C_12_0 :C_13_0 :C_16_0 :C_18_0 :C_19_0 :C_c0_0 :C_c1_0"/>
    <junction id=":C_22_0" type="internal" x="7.91" y="7.90" incLanes=":C_5_0" intLanes=":C_11_0 :C_13_0 :C_19_0 :C_c0_0 :C_c1_0"/>
    <junction id=":C_23_0" type="internal" x="8.38" y="5.15" incLanes=":C_7_0 EC_1" intLanes=":C_6_0 :C_11_0 :C_13_0 :C_19_0 :C_c0_0 :C_c1_0"/>
    <junction id=":C_24_0" type="internal" x="3.45" y="-0.77" incLanes=":C_9_0 WC.99_1 WC.99_2" intLanes=":C_1_0 :C_3_0 :C_4_0 :C_11_0 :C_13_0 :C_14_0 :C_15_0 :C_16_0 :C_17_0 :C_18_0 :C_c1_0 :C_c2_0"/>
    <junction id=":C_25_0" type="internal" x="7.90" y="-7.91" incLanes=":C_10_0" intLanes=":C_4_0 :C_16_0 :C_18_0 :C_c1_0 :C_c2_0"/>
    <junction id=":C_26_0" type="internal" x="5.15" y="-8.38" incLanes=":C_12_0 SC_1" intLanes=":C_4_0 :C_11_0 :C_16_0 :C_18_0 :C_c1_0 :C_c2_0"/>
    <junction id=":C_27_0" type="internal" x="-0.77" y="-3.45" incLanes=":C_14_0 NC_1 NC_2" intLanes=":C_0_0 :C_1_0 :C_2_0 :C_3_0 :C_6_0 :C_8_0 :C_9_0 :C_16_0 :C_18_0 :C_19_0 :C_c2_0"/>
    <junction id=":C_28_0" type="internal" x="-7.91" y="-7.90" incLanes=":C_15_0" intLanes=":C_1_0 :C_3_0 :C_9_0 :C_c2_0"/>
    <junction id=":C_29_0" type="internal" x="-8.38" y="-5.15" incLanes=":C_17_0 WC.99_1" intLanes=":C_1_0 :C_3_0 :C_9_0 :C_16_0 :C_c2_0"/>
    <junction id=":C_30_0" type="internal" x="-3.45" y="0.77" incLanes=":C_19_0 EC_1 EC_2" intLanes=":C_1_0 :C_3_0 :C_4_0 :C_5_0 :C_6_0 :C_7_0 :C_8_0 :C_11_0 :C_13_0 :C_14_0 :C_c0_0"/>

    <connection from="CE" to="EC" fromLane="2" toLane="3" via=":E_0_0" dir="t" state="M"/>
    <connection from="CN" to="NC" fromLane="2" toLane="3" via=":N_0_0" dir="t" state="M"/>
    <connection from="CS" to="SC" fromLane="2" toLane="3" via=":S_0_0" dir="t" state="M"/>
    <connection from="CW" to="CW.100" fromLane="0" toLane="0" via=":gneJ0_0_0" dir="s" state="M"/>
    <connection from="CW" to="CW.100" fromLane="1" toLane="1" via=":gneJ0_0_1" dir="s" state="M"/>
    <connection from="CW" to="CW.100" fromLane="2" toLane="2" via=":gneJ0_0_2" dir="s" state="M"/>
    <connection from="CW.100" to="WC" fromLane="2" toLane="3" via=":W_0_0" dir="t" state="M"/>
    <connection from="EC" to="CN" fromLane="1" toLane="1" via=":C_5_0" tl="C" linkIndex="5" dir="r" state="o"/>
    <connection from="EC" to="CW" fromLane="1" toLane="1" via=":C_6_0" tl="C" linkIndex="6" dir="s" state="o"/>
    <connection from="EC" to="CN" fromLane="2" toLane="2" via=":C_7_0" tl="C" linkIndex="7" dir="r" state="o"/>
    <connection from="EC" to="CW" fromLane="2" toLane="2" via=":C_8_0" tl="C" linkIndex="8" dir="s" state="o"/>
    <connection from="EC" to="CS" fromLane="3" toLane="2" via=":C_9_0" tl="C" linkIndex="9" dir="l" state="o"/>
    <connection from="NC" to="CW" fromLane="1" toLane="1" via=":C_0_0" tl="C" linkIndex="0" dir="r" state="o"/>
    <connection from="NC" to="CS" fromLane="1" toLane="1" via=":C_1_0" tl="C" linkIndex="1" dir="s" state="o"/>
    <connection from="NC" to="CW" fromLane="2" toLane="2" via=":C_2_0" tl="C" linkIndex="2" dir="r" state="o"/>
    <connection from="NC" to="CS" fromLane="2" toLane="2" via=":C_3_0" tl="C" linkIndex="3" dir="s" state="o"/>
    <connection from="NC" to="CE" fromLane="3" toLane="2" via=":C_4_0" tl="C" linkIndex="4" dir="l" state="o"/>
    <connection from="SC" to="CE" fromLane="1" toLane="1" via=":C_10_0" tl="C" linkIndex="10" dir="r" state="o"/>
    <connection from="SC" to="CN" fromLane="1" toLane="1" via=":C_11_0" tl="C" linkIndex="11" dir="s" state="o"/>
    <connection from="SC" to="CE" fromLane="2" toLane="2" via=":C_12_0" tl="C" linkIndex="12" dir="r" state="o"/>
    <connection from="SC" to="CN" fromLane="2" toLane="2" via=":C_13_0" tl="C" linkIndex="13" dir="s" state="o"/>
    <connection from="SC" to="CW" fromLane="3" toLane="2" via=":C_14_0" tl="C" linkIndex="14" dir="l" state="o"/>
    <connection from="WC" to="WC.99" fromLane="0" toLane="0" via=":gneJ0_3_0" dir="s" state="M"/>
    <connection from="WC" to="WC.99" fromLane="1" toLane="1" via=":gneJ0_3_1" dir="s" state="M"/>
    <connection from="WC" to="WC.99" fromLane="2" toLane="2" via=":gneJ0_3_2" dir="s" state="M"/>
    <connection from="WC" to="WC.99" fromLane="3" toLane="3" via=":gneJ0_3_3" dir="s" state="M"/>
    <connection from="WC.99" to="CS" fromLane="1" toLane="1" via=":C_15_0" tl="C" linkIndex="15" dir="r" state="o"/>
    <connection from="WC.99" to="CE" fromLane="1" toLane="1" via=":C_16_0" tl="C" linkIndex="16" dir="s" state="o"/>
    <connection from="WC.99" to="CS" fromLane="2" toLane="2" via=":C_17_0" tl="C" linkIndex="17" dir="r" state="o"/>
    <connection from="WC.99" to="CE" fromLane="2" toLane="2" via=":C_18_0" tl="C" linkIndex="18" dir="s" state="o"/>
    <connection from="WC.99" to="CN" fromLane="3" toLane="2" via=":C_19_0" tl="C" linkIndex="19" dir="l" state="o"/>

    <connection from=":C_0" to="CW" fromLane="0" toLane="1" dir="r" state="M"/>
    <connection from=":C_1" to="CS" fromLane="0" toLane="1" dir="s" state="M"/>
    <connection from=":C_2" to="CW" fromLane="0" toLane="2" via=":C_20_0" dir="r" state="m"/>
    <connection from=":C_20" to="CW" fromLane="0" toLane="2" dir="r" state="M"/>
    <connection from=":C_3" to="CS" fromLane="0" toLane="2" dir="s" state="M"/>
    <connection from=":C_4" to="CE" fromLane="0" toLane="2" via=":C_21_0" dir="l" state="m"/>
    <connection from=":C_21" to="CE" fromLane="0" toLane="2" dir="l" state="M"/>
    <connection from=":C_5" to="CN" fromLane="0" toLane="1" via=":C_22_0" dir="r" state="m"/>
    <connection from=":C_22" to="CN" fromLane="0" toLane="1" dir="r" state="M"/>
    <connection from=":C_6" to="CW" fromLane="0" toLane="1" dir="s" state="M"/>
    <connection from=":C_7" to="CN" fromLane="0" toLane="2" via=":C_23_0" dir="r" state="m"/>
    <connection from=":C_23" to="CN" fromLane="0" toLane="2" dir="r" state="M"/>
    <connection from=":C_8" to="CW" fromLane="0" toLane="2" dir="s" state="M"/>
    <connection from=":C_9" to="CS" fromLane="0" toLane="2" via=":C_24_0" dir="l" state="m"/>
    <connection from=":C_24" to="CS" fromLane="0" toLane="2" dir="l" state="M"/>
    <connection from=":C_10" to="CE" fromLane="0" toLane="1" via=":C_25_0" dir="r" state="m"/>