<?xml version="1.0" encoding="UTF-8"?>

<!-- generated on Tue 06 Apr 2021 01:58:45 PM CEST by Eclipse SUMO netedit Version v1_7_0+1095-7111e26d53
<configuration xmlns:xsi="http://www.w3.org/2001/XMLSchema-instance" xsi:noNamespaceSchemaLocation="http://sumo.dlr.de/xsd/netconvertConfiguration.xsd">

    <input>
        <sumo-net-file value="sumo/networks/cross_LFR_exits.net.xml"/>
    </input>

    <output>
        <output-file value="sumo/networks/cross_LFR_exits.net.xml"/>
    </output>

    <processing>
        <geometry.min-radius.fix.railways value="false"/>
        <geometry.max-grade.fix value="false"/>
        <offset.disable-normalization value="true"/>
        <lefthand value="false"/>
    </processing>

    <junctions>
        <no-internal-links value="false"/>
        <no-turnarounds value="true"/>
        <junctions.corner-detail value="5"/>
        <junctions.limit-turn-speed value="5.5"/>
        <rectangular-lane-cut value="false"/>
    </junctions>

    <pedestrian>
        <walkingareas value="true"/>
    </pedestrian>

    <report>
        <aggregate-warnings value="5"/>
    </report>

</configuration>
-->

<net version="1.6" junctionCornerDetail="5" walkingareas="true" limitTurnSpeed="5.50" xmlns:xsi="http://www.w3.org/2001/XMLSchema-instance" xsi:noNamespaceSchemaLocation="http://sumo.dlr.de/xsd/net_file.xsd">

    <location netOffset="0.00,0.00" convBoundary="-200.00,-200.00,200.00,200.00" origBoundary="-10000000000.00,-10000000000.00,10000000000.00,10000000000.00" projParameter="!"/>

    <edge id=":C_0" function="internal">
        <lane id=":C_0_0" index="0" allow="bicycle" speed="6.74" length="4.14" width="2.00" shape="-10.60,15.10 -10.88,11.64 -11.10,11.00"/>
    </edge>
    <edge id=":C_1" function="internal">
        <lane id=":C_1_0" index="0" allow="bicycle" speed="13.89" length="27.48" width="2.00" shape="-10.60,15.10 -10.07,7.00 -8.90,1.50 -7.73,-4.00 -7.20,-12.10"/>
    </edge>
    <edge id=":C_2" function="internal">
        <lane id=":C_2_0" index="0" disallow="pedestrian bicycle" speed="9.25" length="8.69" shape="-8.00,20.10 -8.00,15.10 -8.35,11.43"/>
    </edge>
    <edge id=":C_3" function="internal">
        <lane id=":C_3_0" index="0" disallow="pedestrian bicycle" speed="13.89" length="32.20" shape="-4.80,20.10 -4.80,15.10 -4.60,-12.10"/>
    </edge>
    <edge id=":C_4" function="internal">
        <lane id=":C_4_0" index="0" disallow="pedestrian bicycle" speed="11.34" length="14.19" shape="-1.60,20.10 -1.60,15.10 -0.74,7.79 0.07,6.15"/>
    </edge>
    <edge id=":C_20" function="internal">
        <lane id=":C_20_0" index="0" allow="bicycle" speed="6.74" length="6.00" width="2.00" shape="-11.10,11.00 -11.72,9.18 -13.13,7.69 -15.10,7.20"/>
    </edge>
    <edge id=":C_21" function="internal">
        <lane id=":C_21_0" index="0" disallow="pedestrian bicycle" speed="9.25" length="10.61" shape="-8.35,11.43 -8.44,10.51 -9.77,7.23 -11.99,5.26 -15.10,4.60"/>
    </edge>
    <edge id=":C_22" function="internal">
        <lane id=":C_22_0" index="0" disallow="pedestrian bicycle" speed="11.34" length="15.37" shape="0.07,6.15 1.82,2.57 6.11,-0.56 12.10,-1.60"/>
    </edge>
    <edge id=":C_5" function="internal">
        <lane id=":C_5_0" index="0" allow="bicycle" speed="6.74" length="4.14" width="2.00" shape="12.10,10.60 8.64,10.88 8.00,11.10"/>
    </edge>
    <edge id=":C_6" function="internal">
        <lane id=":C_6_0" index="0" allow="bicycle" speed="13.89" length="27.48" width="2.00" shape="12.10,10.60 4.00,10.07 -1.50,8.90 -7.00,7.73 -15.10,7.20"/>
    </edge>
    <edge id=":C_7" function="internal">
        <lane id=":C_7_0" index="0" disallow="pedestrian bicycle" speed="9.25" length="8.69" shape="17.10,8.00 12.10,8.00 8.43,8.35"/>
    </edge>
    <edge id=":C_8" function="internal">
        <lane id=":C_8_0" index="0" disallow="pedestrian bicycle" speed="13.89" length="32.20" shape="17.10,4.80 12.10,4.80 -15.10,4.60"/>
    </edge>
    <edge id=":C_9" function="internal">
        <lane id=":C_9_0" index="0" disallow="pedestrian bicycle" speed="11.34" length="14.19" shape="17.10,1.60 12.10,1.60 4.79,0.74 3.15,-0.07"/>
    </edge>
    <edge id=":C_23" function="internal">
        <lane id=":C_23_0" index="0" allow="bicycle" speed="6.74" length="6.00" width="2.00" shape="8.00,11.10 6.17,11.72 4.69,13.13 4.20,15.10"/>
    </edge>
    <edge id=":C_24" function="internal">
        <lane id=":C_24_0" index="0" disallow="pedestrian bicycle" speed="9.25" length="10.61" shape="8.43,8.35 7.51,8.44 4.22,9.77 2.26,11.99 1.60,15.10"/>
    </edge>
    <edge id=":C_25" function="internal">
        <lane id=":C_25_0" index="0" disallow="pedestrian bicycle" speed="11.34" length="15.37" shape="3.15,-0.07 -0.42,-1.82 -3.56,-6.11 -4.60,-12.10"/>
    </edge>
    <edge id=":C_10" function="internal">
        <lane id=":C_10_0" index="0" allow="bicycle" speed="6.74" length="4.14" width="2.00" shape="7.60,-12.10 7.88,-8.64 8.10,-8.00"/>
    </edge>
    <edge id=":C_11" function="internal">
        <lane id=":C_11_0" index="0" allow="bicycle" speed="13.89" length="27.48" width="2.00" shape="7.60,-12.10 7.07,-4.00 5.90,1.50 4.73,7.00 4.20,15.10"/>
    </edge>
    <edge id=":C_12" function="internal">
        <lane id=":C_12_0" index="0" disallow="pedestrian bicycle" speed="9.25" length="8.69" shape="5.00,-17.10 5.00,-12.10 5.35,-8.43"/>
    </edge>
    <edge id=":C_13" function="internal">
        <lane id=":C_13_0" index="0" disallow="pedestrian bicycle" speed="13.89" length="32.20" shape="1.80,-17.10 1.80,-12.10 1.60,15.10"/>
    </edge>
    <edge id=":C_14" function="internal">
        <lane id=":C_14_0" index="0" disallow="pedestrian bicycle" speed="11.34" length="14.19" shape="-1.40,-17.10 -1.40,-12.10 -2.26,-4.79 -3.07,-3.15"/>
    </edge>
    <edge id=":C_26" function="internal">
        <lane id=":C_26_0" index="0" allow="bicycle" speed="6.74" length="6.00" width="2.00" shape="8.10,-8.00 8.72,-6.17 10.13,-4.69 12.10,-4.20"/>
    </edge>
    <edge id=":C_27" function="internal">
        <lane id=":C_27_0" index="0" disallow="pedestrian bicycle" speed="9.25" length="10.61" shape="5.35,-8.43 5.44,-7.51 6.77,-4.22 8.99,-2.26 12.10,-1.60"/>
    </edge>
    <edge id=":C_28" function="internal">
        <lane id=":C_28_0" index="0" disallow="pedestrian bicycle" speed="11.34" length="15.37" shape="-3.07,-3.15 -4.82,0.42 -9.11,3.56 -15.10,4.60"/>
    </edge>
    <edge id=":C_15" function="internal">
        <lane id=":C_15_0" index="0" allow="bicycle" speed="6.74" length="4.14" width="2.00" shape="-15.10,-7.60 -11.64,-7.88 -11.00,-8.10"/>
    </edge>
    <edge id=":C_16" function="internal">
        <lane id=":C_16_0" index="0" allow="bicycle" speed="13.89" length="27.48" width="2.00" shape="-15.10,-7.60 -7.00,-7.07 -1.50,-5.90 4.00,-4.73 12.10,-4.20"/>
    </edge>
    <edge id=":C_17" function="internal">
        <lane id=":C_17_0" index="0" disallow="pedestrian bicycle" speed="9.25" length="8.69" shape="-20.10,-5.00 -15.10,-5.00 -11.43,-5.35"/>
    </edge>
    <edge id=":C_18" function="internal">
        <lane id=":C_18_0" index="0" disallow="pedestrian bicycle" speed="13.89" length="32.20" shape="-20.10,-1.80 -15.10,-1.80 12.10,-1.60"/>
    </edge>
    <edge id=":C_19" function="internal">
        <lane id=":C_19_0" index="0" disallow="pedestrian bicycle" speed="11.34" length="14.19" shape="-20.10,1.40 -15.10,1.40 -7.79,2.26 -6.15,3.07"/>
    </edge>
    <edge id=":C_29" function="internal">
        <lane id=":C_29_0" index="0" allow="bicycle" speed="6.74" length="6.00" width="2.00" shape="-11.00,-8.10 -9.17,-8.72 -7.69,-10.13 -7.20,-12.10"/>
    </edge>
    <edge id=":C_30" function="internal">
        <lane id=":C_30_0" index="0" disallow="pedestrian bicycle" speed="9.25" length="10.61" shape="-11.43,-5.35 -10.51,-5.44 -7.22,-6.77 -5.26,-8.99 -4.60,-12.10"/>
    </edge>
    <edge id=":C_31" function="internal">
        <lane id=":C_31_0" index="0" disallow="pedestrian bicycle" speed="11.34" length="15.37" shape="-6.15,3.07 -2.58,4.82 0.56,9.11 1.60,15.10"/>
    </edge>
    <edge id=":C_c0" function="crossing" crossingEdges="CN NC">
        <lane id=":C_c0_0" index="0" allow="pedestrian" speed="1.00" length="16.80" width="4.00" shape="5.20,13.10 -11.60,13.10"/>
    </edge>
    <edge id=":C_c1" function="crossing" crossingEdges="CE EC">
        <lane id=":C_c1_0" index="0" allow="pedestrian" speed="1.00" length="16.80" width="4.00" shape="10.10,-5.20 10.10,11.60"/>
    </edge>
    <edge id=":C_c2" function="crossing" crossingEdges="CS SC">
        <lane id=":C_c2_0" index="0" allow="pedestrian" speed="1.00" length="16.80" width="4.00" shape="-8.20,-10.10 8.60,-10.10"/>
    </edge>
    <edge id=":C_c3" function="crossing" crossingEdges="CW WC">
        <lane id=":C_c3_0" index="0" allow="pedestrian" speed="1.00" length="16.80" width="4.00" shape="-13.10,8.20 -13.10,-8.60"/>
    </edge>
    <edge id=":C_w0" function="walkingarea">
        <lane id=":C_w0_0" index="0" allow="pedestrian" speed="1.00" length="4.69" width="4.00" shape="-15.10,8.20 -15.10,10.20 -13.60,15.10 -11.60,15.10 -11.70,12.99 -11.99,11.27 -12.47,9.93 -13.16,8.97 -14.03,8.39"/>
    </edge>
    <edge id=":C_w1" function="walkingarea">
        <lane id=":C_w1_0" index="0" allow="pedestrian" speed="1.00" length="4.69" width="4.00" shape="5.20,15.10 7.20,15.10 12.10,13.60 12.10,11.60 9.99,11.70 8.27,11.99 6.92,12.47 5.97,13.16 5.39,14.03"/>
    </edge>
    <edge id=":C_w2" function="walkingarea">
        <lane id=":C_w2_0" index="0" allow="pedestrian" speed="1.00" length="4.69" width="4.00" shape="12.10,-5.20 12.10,-7.20 10.60,-12.10 8.60,-12.10 8.70,-9.99 8.99,-8.27 9.47,-6.92 10.16,-5.97 11.03,-5.39"/>
    </edge>
    <edge id=":C_w3" function="walkingarea">
        <lane id=":C_w3_0" index="0" allow="pedestrian" speed="1.00" length="4.69" width="4.00" shape="-8.20,-12.10 -10.20,-12.10 -15.10,-10.60 -15.10,-8.60 -12.99,-8.70 -11.27,-8.99 -9.93,-9.47 -8.97,-10.16 -8.39,-11.03"/>
    </edge>
    <edge id=":E0_w0" function="walkingarea">
        <lane id=":E0_w0_0" index="0" allow="pedestrian" speed="1.00" length="15.40" width="2.00" shape="200.00,8.20 200.00,10.20 200.00,-7.20 200.00,-5.20"/>
    </edge>
    <edge id=":E1_0" function="internal">
        <lane id=":E1_0_0" index="0" allow="bicycle" speed="13.89" length="8.63" width="2.00" shape="54.00,7.20 51.53,7.73 50.00,8.90 48.47,10.07 46.00,10.60"/>
        <lane id=":E1_0_1" index="1" disallow="pedestrian bicycle" speed="13.89" length="8.63" shape="54.00,4.60 51.53,5.13 50.00,6.30 48.47,7.47 46.00,8.00"/>
        <lane id=":E1_0_2" index="2" disallow="pedestrian bicycle" speed="13.89" length="8.63" shape="54.00,4.60 46.00,4.80"/>
        <lane id=":E1_0_3" index="3" disallow="pedestrian bicycle" speed="13.89" length="8.63" shape="54.00,4.60 51.55,4.13 50.00,3.10 48.45,2.07 46.00,1.60"/>
    </edge>
    <edge id=":E1_w0" function="walkingarea">
        <lane id=":E1_w0_0" index="0" allow="pedestrian" speed="1.00" length="8.69" width="2.00" shape="46.00,11.60 46.00,13.60 54.00,10.20 54.00,8.20 52.20,8.45 50.96,9.08 50.00,9.90 49.04,10.72 47.80,11.35"/>
    </edge>
    <edge id=":N0_0" function="internal">
        <lane id=":N0_0_0" index="0" disallow="pedestrian bicycle" speed="4.66" length="9.05" shape="1.60,200.00 0.05,202.32 -1.50,203.10 -3.05,202.32 -4.60,200.00"/>
    </edge>
    <edge id=":N0_w0" function="walkingarea">
        <lane id=":N0_w0_0" index="0" allow="pedestrian" speed="1.00" length="15.40" width="2.00" shape="-8.20,200.00 -10.20,200.00 7.20,200.00 5.20,200.00"/>
    </edge>
    <edge id=":N1_0" function="internal">
        <lane id=":N1_0_0" index="0" allow="bicycle" speed="13.89" length="8.63" width="2.00" shape="-7.20,54.00 -7.73,51.53 -8.90,50.00 -10.07,48.47 -10.60,46.00"/>
        <lane id=":N1_0_1" index="1" disallow="pedestrian bicycle" speed="13.89" length="8.63" shape="-4.60,54.00 -5.13,51.53 -6.30,50.00 -7.47,48.47 -8.00,46.00"/>
        <lane id=":N1_0_2" index="2" disallow="pedestrian bicycle" speed="13.89" length="8.63" shape="-4.60,54.00 -4.80,46.00"/>
        <lane id=":N1_0_3" index="3" disallow="pedestrian bicycle" speed="13.89" length="8.63" shape="-4.60,54.00 -4.13,51.55 -3.10,50.00 -2.07,48.45 -1.60,46.00"/>
    </edge>
    <edge id=":N1_w0" function="walkingarea">
        <lane id=":N1_w0_0" index="0" allow="pedestrian" speed="1.00" length="8.69" width="2.00" shape="-11.60,46.00 -13.60,46.00 -10.20,54.00 -8.20,54.00 -8.45,52.20 -9.08,50.96 -9.90,50.00 -10.72,49.04 -11.35,47.80"/>
    </edge>
    <edge id=":S0_0" function="internal">
        <lane id=":S0_0_0" index="0" disallow="pedestrian bicycle" speed="4.66" length="9.05" shape="-4.60,-200.00 -3.05,-202.32 -1.50,-203.10 0.05,-202.32 1.60,-200.00"/>
    </edge>
    <edge id=":S0_w0" function="walkingarea">
        <lane id=":S0_w0_0" index="0" allow="pedestrian" speed="1.00" length="15.40" width="2.00" shape="5.20,-200.00 7.20,-200.00 -10.20,-200.00 -8.20,-200.00"/>
    </edge>
    <edge id=":S1_0" function="internal">
        <lane id=":S1_0_0" index="0" allow="bicycle" speed="13.89" length="8.63" width="2.00" shape="4.20,-54.00 4.73,-51.53 5.90,-50.00 7.07,-48.47 7.60,-46.00"/>
        <lane id=":S1_0_1" index="1" disallow="pedestrian bicycle" speed="13.89" length="8.63" shape="1.60,-54.00 2.13,-51.53 3.30,-50.00 4.47,-48.47 5.00,-46.00"/>
        <lane id=":S1_0_2" index="2" disallow="pedestrian bicycle" speed="13.89" length="8.63" shape="1.60,-54.00 1.80,-46.00"/>
        <lane id=":S1_0_3" index="3" disallow="pedestrian bicycle" speed="13.89" length="8.63" shape="1.60,-54.00 1.13,-51.55 0.10,-50.00 -0.93,-48.45 -1.40,-46.00"/>
    </edge>
    <edge id=":S1_w0" function="walkingarea">
        <lane id=":S1_w0_0" index="0" allow="pedestrian" speed="1.00" length="8.69" width="2.00" shape="8.60,-46.00 10.60,-46.00 7.20,-54.00 5.20,-54.00 5.45,-52.20 6.08,-50.96 6.90,-50.00 7.72,-49.04 8.35,-47.80"/>
    </edge>
    <edge id=":W0_0" function="internal">
        <lane id=":W0_0_0" index="0" disallow="pedestrian bicycle" speed="4.66" length="9.05" shape="-200.00,4.60 -202.32,3.05 -203.10,1.50 -202.32,-0.05 -200.00,-1.60"/>
    </edge>
    <edge id=":W0_w0" function="walkingarea">
        <lane id=":W0_w0_0" index="0" allow="pedestrian" speed="1.00" length="15.40" width="2.00" shape="-200.00,-5.20 -200.00,-7.20 -200.00,10.20 -200.00,8.20"/>
    </edge>
    <edge id=":W1_0" function="internal">
        <lane id=":W1_0_0" index="0" allow="bicycle" speed="13.89" length="8.63" width="2.00" shape="-54.00,-4.20 -51.53,-4.73 -50.00,-5.90 -48.47,-7.07 -46.00,-7.60"/>
        <lane id=":W1_0_1" index="1" disallow="pedestrian bicycle" speed="13.89" length="8.63" shape="-54.00,-1.60 -51.53,-2.13 -50.00,-3.30 -48.47,-4.47 -46.00,-5.00"/>
        <lane id=":W1_0_2" index="2" disallow="pedestrian bicycle" speed="13.89" length="8.63" shape="-54.00,-1.60 -46.00,-1.80"/>
        <lane id=":W1_0_3" index="3" disallow="pedestrian bicycle" speed="13.89" length="8.63" shape="-54.00,-1.60 -51.55,-1.13 -50.00,-0.10 -48.45,0.93 -46.00,1.40"/>
    </edge>
    <edge id=":W1_w0" function="walkingarea">
        <lane id=":W1_w0_0" index="0" allow="pedestrian" speed="1.00" length="8.69" width="2.00" shape="-46.00,-8.60 -46.00,-10.60 -54.00,-7.20 -54.00,-5.20 -52.20,-5.45 -50.96,-6.08 -50.00,-6.90 -49.04,-7.72 -47.80,-8.35"/>
    </edge>

    <edge id="CE" from="C" to="E0" priority="-1">
        <lane id="CE_0" index="0" allow="pedestrian" speed="13.89" length="187.90" width="2.00" shape="12.10,-6.20 200.00,-6.20"/>
        <lane id="CE_1" index="1" allow="bicycle" speed="13.89" length="187.90" width="2.00" shape="12.10,-4.20 200.00,-4.20"/>
        <lane id="CE_2" index="2" disallow="pedestrian bicycle" speed="13.89" length="187.90" shape="12.10,-1.60 200.00,-1.60"/>
    </edge>
    <edge id="CN" from="C" to="N0" priority="-1" length="188.10">
        <lane id="CN_0" index="0" allow="pedestrian" speed="13.89" length="188.10" width="2.00" shape="6.20,15.10 6.20,200.00"/>
        <lane id="CN_1" index="1" allow="bicycle" speed="13.89" length="188.10" width="2.00" shape="4.20,15.10 4.20,200.00"/>
        <lane id="CN_2" index="2" disallow="pedestrian bicycle" speed="13.89" length="188.10" shape="1.60,15.10 1.60,200.00"/>
    </edge>
    <edge id="CS" from="C" to="S0" priority="-1" shape="-3.00,0.00 -3.00,-200.00">
        <lane id="CS_0" index="0" allow="pedestrian" speed="13.89" length="187.90" width="2.00" shape="-9.20,-12.10 -9.20,-200.00"/>
        <lane id="CS_1" index="1" allow="bicycle" speed="13.89" length="187.90" width="2.00" shape="-7.20,-12.10 -7.20,-200.00"/>
        <lane id="CS_2" index="2" disallow="pedestrian bicycle" speed="13.89" length="187.90" shape="-4.60,-12.10 -4.60,-200.00"/>
    </edge>
    <edge id="CW" from="C" to="W0" priority="-1" shape="0.00,3.00 -200.00,3.00">
        <lane id="CW_0" index="0" allow="pedestrian" speed="13.89" length="184.90" width="2.00" shape="-15.10,9.20 -200.00,9.20"/>
        <lane id="CW_1" index="1" allow="bicycle" speed="13.89" length="184.90" width="2.00" shape="-15.10,7.20 -200.00,7.20"/>
        <lane id="CW_2" index="2" disallow="pedestrian bicycle" speed="13.89" length="184.90" shape="-15.10,4.60 -200.00,4.60"/>
    </edge>
    <edge id="EC" from="E1" to="C" priority="-1">
        <lane id="EC_0" index="0" allow="pedestrian" speed="13.89" length="30.90" width="2.00" shape="46.00,12.60 12.10,12.60"/>
        <lane id="EC_1" index="1" allow="bicycle" speed="13.89" length="30.90" width="2.00" shape="46.00,10.60 12.10,10.60"/>
        <lane id="EC_2" index="2" disallow="pedestrian bicycle" speed="13.89" length="30.90" endOffset="5.00" shape="46.00,8.00 17.10,8.00"/>
        <lane id="EC_3" index="3" disallow="pedestrian bicycle" speed="13.89" length="30.90" endOffset="5.00" shape="46.00,4.80 17.10,4.80"/>
        <lane id="EC_4" index="4" disallow="pedestrian bicycle" speed="13.89" length="30.90" endOffset="5.00" shape="46.00,1.60 17.10,1.60"/>
    </edge>
    <edge id="EE" from="E0" to="E1" priority="-1" shape="200.00,3.00 50.00,3.00">
        <lane id="EE_0" index="0" allow="pedestrian" speed="13.89" length="146.00" width="2.00" shape="200.00,9.20 54.00,9.20"/>
        <lane id="EE_1" index="1" allow="bicycle" speed="13.89" length="146.00" width="2.00" shape="200.00,7.20 54.00,7.20"/>
        <lane id="EE_2" index="2" disallow="pedestrian bicycle" speed="13.89" length="146.00" shape="200.00,4.60 54.00,4.60"/>
    </edge>
    <edge id="NC" from="N1" to="C" priority="-1">
        <lane id="NC_0" index="0" allow="pedestrian" speed="13.89" length="27.90" width="2.00" shape="-12.60,46.00 -12.60,15.10"/>
        <lane id="NC_1" index="1" allow="bicycle" speed="13.89" length="27.90" width="2.00" shape="-10.60,46.00 -10.60,15.10"/>
        <lane id="NC_2" index="2" disallow="pedestrian bicycle" speed="13.89" length="27.90" endOffset="5.00" shape="-8.00,46.00 -8.00,20.10"/>
        <lane id="NC_3" index="3" disallow="pedestrian bicycle" speed="13.89" length="27.90" endOffset="5.00" shape="-4.80,46.00 -4.80,20.10"/>
        <lane id="NC_4" index="4" disallow="pedestrian bicycle" speed="13.89" length="27.90" endOffset="5.00" shape="-1.60,46.00 -1.60,20.10"/>
    </edge>
    <edge id="NN" from="N0" to="N1" priority="-1" length="188.10" shape="-3.00,200.00 -3.00,50.00">
        <lane id="NN_0" index="0" allow="pedestrian" speed="13.89" length="188.10" width="2.00" shape="-9.20,200.00 -9.20,54.00"/>
        <lane id="NN_1" index="1" allow="bicycle" speed="13.89" length="188.10" width="2.00" shape="-7.20,200.00 -7.20,54.00"/>
        <lane id="NN_2" index="2" disallow="pedestrian bicycle" speed="13.89" length="188.10" shape="-4.60,200.00 -4.60,54.00"/>
    </edge>
    <edge id="SC" from="S1" to="C" priority="-1" shape="-3.00,-50.00 -3.00,0.00">
        <lane id="SC_0" index="0" allow="pedestrian" speed="13.89" length="30.90" width="2.00" shape="9.60,-46.00 9.60,-12.10"/>
        <lane id="SC_1" index="1" allow="bicycle" speed="13.89" length="30.90" width="2.00" shape="7.60,-46.00 7.60,-12.10"/>
        <lane id="SC_2" index="2" disallow="pedestrian bicycle" speed="13.89" length="30.90" endOffset="5.00" shape="5.00,-46.00 5.00,-17.10"/>
        <lane id="SC_3" index="3" disallow="pedestrian bicycle" speed="13.89" length="30.90" endOffset="5.00" shape="1.80,-46.00 1.80,-17.10"/>
        <lane id="SC_4" index="4" disallow="pedestrian bicycle" speed="13.89" length="30.90" endOffset="5.00" shape="-1.40,-46.00 -1.40,-17.10"/>
    </edge>
    <edge id="SS" from="S0" to="S1" priority="-1">
        <lane id="SS_0" index="0" allow="pedestrian" speed="13.89" length="146.00" width="2.00" shape="6.20,-200.00 6.20,-54.00"/>
        <lane id="SS_1" index="1" allow="bicycle" speed="13.89" length="146.00" width="2.00" shape="4.20,-200.00 4.20,-54.00"/>
        <lane id="SS_2" index="2" disallow="pedestrian bicycle" speed="13.89" length="146.00" shape="1.60,-200.00 1.60,-54.00"/>
    </edge>
    <edge id="WC" from="W1" to="C" priority="-1" shape="-50.00,3.00 0.00,3.00">
        <lane id="WC_0" index="0" allow="pedestrian" speed="13.89" length="27.90" width="2.00" shape="-46.00,-9.60 -15.10,-9.60"/>
        <lane id="WC_1" index="1" allow="bicycle" speed="13.89" length="27.90" width="2.00" shape="-46.00,-7.60 -15.10,-7.60"/>
        <lane id="WC_2" index="2" disallow="pedestrian bicycle" speed="13.89" length="27.90" endOffset="5.00" shape="-46.00,-5.00 -20.10,-5.00"/>
        <lane id="WC_3" index="3" disallow="pedestrian bicycle" speed="13.89" length="27.90" endOffset="5.00" shape="-46.00,-1.80 -20.10,-1.80"/>
        <lane id="WC_4" index="4" disallow="pedestrian bicycle" speed="13.89" length="27.90" endOffset="5.00" shape="-46.00,1.40 -20.10,1.40"/>
    </edge>
    <edge id="WW" from="W0" to="W1" priority="-1">
        <lane id="WW_0" index="0" allow="pedestrian" speed="13.89" length="146.00" width="2.00" shape="-200.00,-6.20 -54.00,-6.20"/>
        <lane id="WW_1" index="1" allow="bicycle" speed="13.89" length="146.00" width="2.00" shape="-200.00,-4.20 -54.00,-4.20"/>
        <lane id="WW_2" index="2" disallow="pedestrian bicycle" speed="13.89" length="146.00" shape="-200.00,-1.60 -54.00,-1.60"/>
    </edge>

    <tlLogic id="C" type="static" programID="0" offset="0">
        <phase duration="28" state="gGgGgrrrrrgGgGgrrrrrrGrG"/>
        <phase duration="5"  state="gGgGgrrrrrgGgGgrrrrrrrrr"/>
        <phase duration="3"  state="yyyygrrrrryyyygrrrrrrrrr"/>
        <phase duration="6"  state="rrrrGrrrrrrrrrGrrrrrrrrr"/>
        <phase duration="3"  state="rrrryrrrrrrrrryrrrrrrrrr"/>
        <phase duration="28" state="rrrrrgGgGgrrrrrgGgGgGrGr"/>
        <phase duration="5"  state="rrrrrgGgGgrrrrrgGgGgrrrr"/>
        <phase duration="3"  state="rrrrryyyygrrrrryyyygrrrr"/>
        <phase duration="6"  state="rrrrrrrrrGrrrrrrrrrGrrrr"/>
        <phase duration="3"  state="rrrrrrrrryrrrrrrrrryrrrr"/>
    </tlLogic>

    <junction id="C" type="traffic_light" x="0.00" y="0.00" incLanes="NC_0 NC_1 NC_2 NC_3 NC_4 EC_0 EC_1 EC_2 EC_3 EC_4 SC_0 SC_1 SC_2 SC_3 SC_4 WC_0 WC_1 WC_2 WC_3 WC_4 :C_w1_0 :C_w2_0 :C_w3_0 :C_w0_0" intLanes=":C_20_0 :C_1_0 :C_21_0 :C_3_0 :C_22_0 :C_23_0 :C_6_0 :C_24_0 :C_8_0 :C_25_0 :C_26_0 :C_11_0 :C_27_0 :C_13_0 :C_28_0 :C_29_0 :C_16_0 :C_30_0 :C_18_0 :C_31_0 :C_c0_0 :C_c1_0 :C_c2_0 :C_c3_0" shape="-13.60,15.10 7.20,15.10 7.74,14.27 8.42,13.98 9.38,13.77 10.60,13.64 12.10,13.60 12.10,-7.20 11.27,-7.74 10.98,-8.42 10.77,-9.38 10.64,-10.60 10.60,-12.10 -10.20,-12.10 -10.74,-11.27 -11.42,-10.98 -12.38,-10.77 -13.60,-10.64 -15.10,-10.60 -15.10,10.20 -14.27,10.74 -13.97,11.42 -13.77,12.38 -13.64,13.60">
        <request index="0"  response="100100000000000000000000" foes="100100000000000001000000" cont="1"/>
        <request index="1"  response="010110101000000000000000" foes="010111111100000101000100" cont="0"/>
        <request index="2"  response="100100000000000000000010" foes="100100000100000101000010" cont="1"/>
        <request index="3"  response="010110100000001000000000" foes="010111110100001101000000" cont="0"/>
        <request index="4"  response="001110000011101000000000" foes="001111000011101101000000" cont="1"/>
        <request index="5"  response="001100000000100000000000" foes="001100000000100000000000" cont="1"/>
        <request index="6"  response="101000000010100000011111" foes="101010000010100010011111" cont="0"/>
        <request index="7"  response="001100000010100001000000" foes="001110000010100001000000" cont="1"/>
        <request index="8"  response="101000000110100000011110" foes="101010000110100000011110" cont="0"/>
        <request index="9"  response="011001110110100000011000" foes="011001110110100000011000" cont="1"/>
        <request index="10" response="011000000000000000000000" foes="011000010000000000000000" cont="1"/>
        <request index="11" response="010100000000001010100000" foes="010101010001001111110000" cont="0"/>
        <request index="12" response="011000000000100000000000" foes="011001010000100000010000" cont="1"/>
        <request index="13" response="010110000000001010000000" foes="010111010000001111010000" cont="0"/>
        <request index="14" response="110010000000001000001110" foes="110011010000001100001110" cont="1"/>
        <request index="15" response="110000000000000000000010" foes="110000000000000000000010" cont="1"/>
        <request index="16" response="101000000111110000001010" foes="101000100111111000001010" cont="0"/>
        <request index="17" response="110000010000000000001010" foes="110000010000001000001010" cont="1"/>
        <request index="18" response="101000000111100000011010" foes="101000000111101000011010" cont="0"/>
        <request index="19" response="100100000110000111011010" foes="100100000110000111011010" cont="1"/>
        <request index="20" response="000000000000000000000000" foes="000010000010100010111111" cont="0"/>
        <request index="21" response="000000000000000000000000" foes="000001010001011111110000" cont="0"/>
        <request index="22" response="000000000000000000000000" foes="000000101111111000001010" cont="0"/>
        <request index="23" response="000000000000000000000000" foes="000011111100000101000101" cont="0"/>
    </junction>
    <junction id="E0" type="dead_end" x="200.00" y="0.00" incLanes="CE_0 CE_1 CE_2" intLanes="" shape="200.00,3.00 200.00,-7.20 200.00,0.00"/>
    <junction id="E1" type="priority" x="50.00" y="0.00" incLanes="EE_0 EE_1 EE_2" intLanes=":E1_0_0 :E1_0_1 :E1_0_2 :E1_0_3" shape="54.00,10.20 54.00,3.00 50.98,2.22 49.02,0.78 47.78,0.22 46.00,0.00 46.00,13.60 49.04,12.72 50.96,11.08 52.20,10.45">
        <request index="0" response="0000" foes="0000" cont="0"/>
        <request index="1" response="0000" foes="0000" cont="0"/>
        <request index="2" response="0000" foes="0000" cont="0"/>
        <request index="3" response="0000" foes="0000" cont="0"/>
    </junction>
    <junction id="N0" type="unregulated" x="0.00" y="200.00" incLanes="CN_0 CN_1 CN_2" intLanes=":N0_0_0" shape="-3.00,200.00 7.20,200.00 0.00,200.00"/>
    <junction id="N1" type="priority" x="0.00" y="50.00" incLanes="NN_0 NN_1 NN_2" intLanes=":N1_0_0 :N1_0_1 :N1_0_2 :N1_0_3" shape="-10.20,54.00 -3.00,54.00 -2.22,50.98 -0.78,49.02 -0.22,47.78 0.00,46.00 -13.60,46.00 -12.72,49.04 -11.08,50.96 -10.45,52.20">
        <request index="0" response="0000" foes="0000" cont="0"/>
        <request index="1" response="0000" foes="0000" cont="0"/>
        <request index="2" response="0000" foes="0000" cont="0"/>
        <request index="3" response="0000" foes="0000" cont="0"/>
    </junction>
    <junction id="S0" type="unregulated" x="0.00" y="-200.00" incLanes="CS_0 CS_1 CS_2" intLanes=":S0_0_0" shape="0.00,-200.00 -10.20,-200.00 -3.00,-200.00"/>
    <junction id="S1" type="priority" x="0.00" y="-50.00" incLanes="SS_0 SS_1 SS_2" intLanes=":S1_0_0 :S1_0_1 :S1_0_2 :S1_0_3" shape="-3.00,-46.00 10.60,-46.00 9.72,-49.04 8.08,-50.96 7.45,-52.20 7.20,-54.00 0.00,-54.00 -0.78,-50.98 -2.22,-49.02 -2.78,-47.78">
        <request index="0" response="0000" foes="0000" cont="0"/>
        <request index="1" response="0000" foes="0000" cont="0"/>
        <request index="2" response="0000" foes="0000" cont="0"/>
        <request index="3" response="0000" foes="0000" cont="0"/>
    </junction>
    <junction id="W0" type="unregulated" x="-200.00" y="0.00" incLanes="CW_0 CW_1 CW_2" intLanes=":W0_0_0" shape="-200.00,0.00 -200.00,10.20 -200.00,3.00"/>
    <junction id="W1" type="priority" x="-50.00" y="0.00" incLanes="WW_0 WW_1 WW_2" intLanes=":W1_0_0 :W1_0_1 :W1_0_2 :W1_0_3" shape="-46.00,3.00 -46.00,-10.60 -49.04,-9.72 -50.96,-8.08 -52.20,-7.45 -54.00,-7.20 -54.00,0.00 -50.98,0.78 -49.02,2.22 -47.78,2.78">
        <request index="0" response="0000" foes="0000" cont="0"/>
        <request index="1" response="0000" foes="0000" cont="0"/>
        <request index="2" response="0000" foes="0000" cont="0"/>
        <request index="3" response="0000" foes="0000" cont="0"/>
    </junction>

    <junction id=":C_20_0" type="internal" x="-11.10" y="11.00" incLanes=":C_0_0" intLanes=":C_6_0 :C_8_0 :C_14_0 :C_c0_0 :C_c3_0"/>
    <junction id=":C_21_0" type="internal" x="-8.35" y="11.43" incLanes=":C_2_0 NC_1" intLanes=":C_1_0 :C_6_0 :C_8_0 :C_14_0 :C_c0_0 :C_c3_0"/>
    <junction id=":C_22_0" type="internal" x="0.07" y="6.15" incLanes=":C_4_0 SC_1 SC_2 SC_3" intLanes=":C_6_0 :C_8_0 :C_9_0 :C_10_0 :C_11_0 :C_12_0 :C_13_0 :C_16_0 :C_18_0 :C_19_0 :C_c0_0 :C_c1_0"/>
    <junction id=":C_23_0" type="internal" x="8.00" y="11.10" incLanes=":C_5_0" intLanes=":C_11_0 :C_13_0 :C_19_0 :C_c0_0 :C_c1_0"/>
    <junction id=":C_24_0" type="internal" x="8.43" y="8.35" incLanes=":C_7_0 EC_1" intLanes=":C_6_0 :C_11_0 :C_13_0 :C_19_0 :C_c0_0 :C_c1_0"/>
    <junction id=":C_25_0" type="internal" x="3.15" y="-0.07" incLanes=":C_9_0 WC_1 WC_2 WC_3" intLanes=":C_1_0 :C_3_0 :C_4_0 :C_11_0 :C_13_0 :C_14_0 :C_15_0 :C_16_0 :C_17_0 :C_18_0 :C_c1_0 :C_c2_0"/>