<?xml version="1.0" encoding="UTF-8"?>

<!-- generated on Mon 01 Mar 2021 08:39:36 PM CET by Eclipse SUMO netedit Version v1_7_0+1095-7111e26d53
<configuration xmlns:xsi="http://www.w3.org/2001/XMLSchema-instance" xsi:noNamespaceSchemaLocation="http://sumo.dlr.de/xsd/netconvertConfiguration.xsd">

    <input>
        <sumo-net-file value="cross.net.xml"/>
    </input>

    <output>
        <output-file value="cross.net.xml"/>
    </output>

    <processing>
        <geometry.min-radius.fix.railways value="false"/>
        <geometry.max-grade.fix value="false"/>
        <offset.disable-normalization value="true"/>
        <lefthand value="false"/>
    </processing>

    <junctions>
        <no-internal-links value="false"/>
        <no-turnarounds value="true"/>
        <junctions.corner-detail value="5"/>
        <junctions.limit-turn-speed value="5.5"/>
        <rectangular-lane-cut value="false"/>
    </junctions>

    <pedestrian>
        <walkingareas value="true"/>
    </pedestrian>

    <report>
        <aggregate-warnings value="5"/>
    </report>

</configuration>
-->

<net version="1.6" junctionCornerDetail="5" walkingareas="true" limitTurnSpeed="5.50" xmlns:xsi="http://www.w3.org/2001/XMLSchema-instance" xsi:noNamespaceSchemaLocation="http://sumo.dlr.de/xsd/net_file.xsd">

    <location netOffset="0.00,0.00" convBoundary="-200.00,-200.00,200.00,200.00" origBoundary="-10000000000.00,-10000000000.00,10000000000.00,10000000000.00" projParameter="!"/>

    <edge id=":C_0" function="internal">
        <lane id=":C_0_0" index="0" allow="bicycle" speed="5.77" length="2.41" width="2.00" shape="-7.40,11.90 -7.68,9.93 -7.90,9.57"/>
    </edge>
    <edge id=":C_1" function="internal">
        <lane id=":C_1_0" index="0" allow="bicycle" speed="13.89" length="23.80" width="2.00" shape="-7.40,11.90 -7.40,-11.90"/>
    </edge>
    <edge id=":C_2" function="internal">
        <lane id=":C_2_0" index="0" disallow="pedestrian bicycle" speed="7.25" length="3.44" shape="-4.80,11.90 -5.24,8.79 -5.40,8.53"/>
    </edge>
    <edge id=":C_3" function="internal">
        <lane id=":C_3_0" index="0" disallow="pedestrian bicycle" speed="13.89" length="23.80" shape="-4.80,11.90 -4.80,-11.90"/>
        <lane id=":C_3_1" index="1" disallow="pedestrian bicycle" speed="13.89" length="23.80" shape="-1.60,11.90 -1.60,-11.90"/>
    </edge>
    <edge id=":C_5" function="internal">
        <lane id=":C_5_0" index="0" disallow="pedestrian bicycle" speed="9.79" length="7.44" shape="-1.60,11.90 -0.76,5.99 0.00,4.73"/>
    </edge>
    <edge id=":C_24" function="internal">
        <lane id=":C_24_0" index="0" allow="bicycle" speed="5.77" length="4.84" width="2.00" shape="-7.90,9.57 -8.52,8.53 -9.93,7.68 -11.90,7.40"/>
    </edge>
    <edge id=":C_25" function="internal">
        <lane id=":C_25_0" index="0" disallow="pedestrian bicycle" speed="7.25" length="8.01" shape="-5.40,8.53 -6.57,6.57 -8.79,5.24 -11.90,4.80"/>
    </edge>
    <edge id=":C_26" function="internal">
        <lane id=":C_26_0" index="0" disallow="pedestrian bicycle" speed="9.79" length="14.34" shape="0.00,4.73 1.77,1.77 5.99,-0.76 11.90,-1.60"/>
    </edge>
    <edge id=":C_6" function="internal">
        <lane id=":C_6_0" index="0" allow="bicycle" speed="5.77" length="2.41" width="2.00" shape="11.90,7.40 9.93,7.68 9.57,7.90"/>
    </edge>
    <edge id=":C_7" function="internal">
        <lane id=":C_7_0" index="0" allow="bicycle" speed="13.89" length="23.80" width="2.00" shape="11.90,7.40 -11.90,7.40"/>
    </edge>
    <edge id=":C_8" function="internal">
        <lane id=":C_8_0" index="0" disallow="pedestrian bicycle" speed="7.25" length="3.44" shape="11.90,4.80 8.79,5.24 8.53,5.40"/>
    </edge>
    <edge id=":C_9" function="internal">
        <lane id=":C_9_0" index="0" disallow="pedestrian bicycle" speed="13.89" length="23.80" shape="11.90,4.80 -11.90,4.80"/>
        <lane id=":C_9_1" index="1" disallow="pedestrian bicycle" speed="13.89" length="23.80" shape="11.90,1.60 -11.90,1.60"/>
    </edge>
    <edge id=":C_11" function="internal">
        <lane id=":C_11_0" index="0" disallow="pedestrian bicycle" speed="9.79" length="7.44" shape="11.90,1.60 5.99,0.76 4.73,-0.00"/>
    </edge>
    <edge id=":C_27" function="internal">
        <lane id=":C_27_0" index="0" allow="bicycle" speed="5.77" length="4.84" width="2.00" shape="9.57,7.90 8.53,8.52 7.68,9.93 7.40,11.90"/>
    </edge>
    <edge id=":C_28" function="internal">
        <lane id=":C_28_0" index="0" disallow="pedestrian bicycle" speed="7.25" length="8.01" shape="8.53,5.40 6.57,6.57 5.24,8.79 4.80,11.90"/>
    </edge>
    <edge id=":C_29" function="internal">
        <lane id=":C_29_0" index="0" disallow="pedestrian bicycle" speed="9.79" length="14.34" shape="4.73,-0.00 1.77,-1.77 -0.76,-5.99 -1.60,-11.90"/>
    </edge>
    <edge id=":C_12" function="internal">
        <lane id=":C_12_0" index="0" allow="bicycle" speed="5.77" length="2.41" width="2.00" shape="7.40,-11.90 7.68,-9.93 7.90,-9.57"/>
    </edge>
    <edge id=":C_13" function="internal">
        <lane id=":C_13_0" index="0" allow="bicycle" speed="13.89" length="23.80" width="2.00" shape="7.40,-11.90 7.40,11.90"/>
    </edge>
    <edge id=":C_14" function="internal">
        <lane id=":C_14_0" index="0" disallow="pedestrian bicycle" speed="7.25" length="3.44" shape="4.80,-11.90 5.24,-8.79 5.40,-8.53"/>
    </edge>
    <edge id=":C_15" function="internal">
        <lane id=":C_15_0" index="0" disallow="pedestrian bicycle" speed="13.89" length="23.80" shape="4.80,-11.90 4.80,11.90"/>
        <lane id=":C_15_1" index="1" disallow="pedestrian bicycle" speed="13.89" length="23.80" shape="1.60,-11.90 1.60,11.90"/>
    </edge>
    <edge id=":C_17" function="internal">
        <lane id=":C_17_0" index="0" disallow="pedestrian bicycle" speed="9.79" length="7.44" shape="1.60,-11.90 0.76,-5.99 -0.00,-4.73"/>
    </edge>
    <edge id=":C_30" function="internal">
        <lane id=":C_30_0" index="0" allow="bicycle" speed="5.77" length="4.84" width="2.00" shape="7.90,-9.57 8.52,-8.53 9.93,-7.68 11.90,-7.40"/>
    </edge>
    <edge id=":C_31" function="internal">
        <lane id=":C_31_0" index="0" disallow="pedestrian bicycle" speed="7.25" length="8.01" shape="5.40,-8.53 6.57,-6.57 8.79,-5.24 11.90,-4.80"/>
    </edge>
    <edge id=":C_32" function="internal">
        <lane id=":C_32_0" index="0" disallow="pedestrian bicycle" speed="9.79" length="14.34" shape="-0.00,-4.73 -1.77,-1.77 -5.99,0.76 -11.90,1.60"/>
    </edge>
    <edge id=":C_18" function="internal">
        <lane id=":C_18_0" index="0" allow="bicycle" speed="5.77" length="2.41" width="2.00" shape="-11.90,-7.40 -9.93,-7.68 -9.57,-7.90"/>
    </edge>
    <edge id=":C_19" function="internal">
        <lane id=":C_19_0" index="0" allow="bicycle" speed="13.89" length="23.80" width="2.00" shape="-11.90,-7.40 11.90,-7.40"/>
    </edge>
    <edge id=":C_20" function="internal">
        <lane id=":C_20_0" index="0" disallow="pedestrian bicycle" speed="7.25" length="3.44" shape="-11.90,-4.80 -8.79,-5.24 -8.53,-5.40"/>
    </edge>
    <edge id=":C_21" function="internal">
        <lane id=":C_21_0" index="0" disallow="pedestrian bicycle" speed="13.89" length="23.80" shape="-11.90,-4.80 11.90,-4.80"/>
        <lane id=":C_21_1" index="1" disallow="pedestrian bicycle" speed="13.89" length="23.80" shape="-11.90,-1.60 11.90,-1.60"/>
    </edge>
    <edge id=":C_23" function="internal">
        <lane id=":C_23_0" index="0" disallow="pedestrian bicycle" speed="9.79" length="7.44" shape="-11.90,-1.60 -5.99,-0.76 -4.73,0.00"/>
    </edge>
    <edge id=":C_33" function="internal">
        <lane id=":C_33_0" index="0" allow="bicycle" speed="5.77" length="4.84" width="2.00" shape="-9.57,-7.90 -8.53,-8.52 -7.68,-9.93 -7.40,-11.90"/>
    </edge>
    <edge id=":C_34" function="internal">
        <lane id=":C_34_0" index="0" disallow="pedestrian bicycle" speed="7.25" length="8.01" shape="-8.53,-5.40 -6.57,-6.57 -5.24,-8.79 -4.80,-11.90"/>
    </edge>
    <edge id=":C_35" function="internal">
        <lane id=":C_35_0" index="0" disallow="pedestrian bicycle" speed="9.79" length="14.34" shape="-4.73,0.00 -1.77,1.77 0.76,5.99 1.60,11.90"/>
    </edge>
    <edge id=":C_c0" function="crossing" crossingEdges="CN NC">
        <lane id=":C_c0_0" index="0" allow="pedestrian" speed="1.00" length="16.80" width="4.00" shape="8.40,9.90 -8.40,9.90"/>
    </edge>
    <edge id=":C_c1" function="crossing" crossingEdges="CE EC">
        <lane id=":C_c1_0" index="0" allow="pedestrian" speed="1.00" length="16.80" width="4.00" shape="9.90,-8.40 9.90,8.40"/>
    </edge>
    <edge id=":C_c2" function="crossing" crossingEdges="CS SC">
        <lane id=":C_c2_0" index="0" allow="pedestrian" speed="1.00" length="16.80" width="4.00" shape="-8.40,-9.90 8.40,-9.90"/>
    </edge>
    <edge id=":C_c3" function="crossing" crossingEdges="CW WC">
        <lane id=":C_c3_0" index="0" allow="pedestrian" speed="1.00" length="16.80" width="4.00" shape="-9.90,8.40 -9.90,-8.40"/>
    </edge>
    <edge id=":C_w0" function="walkingarea">
        <lane id=":C_w0_0" index="0" allow="pedestrian" speed="1.00" length="2.87" width="4.00" shape="-11.90,8.40 -11.90,10.40 -10.40,11.90 -8.40,11.90 -8.50,10.83 -8.79,9.96 -9.28,9.27 -9.96,8.79 -10.83,8.50"/>
    </edge>
    <edge id=":C_w1" function="walkingarea">
        <lane id=":C_w1_0" index="0" allow="pedestrian" speed="1.00" length="2.87" width="4.00" shape="8.40,11.90 10.40,11.90 11.90,10.40 11.90,8.40 10.83,8.50 9.96,8.79 9.27,9.28 8.79,9.96 8.50,10.83"/>
    </edge>
    <edge id=":C_w2" function="walkingarea">
        <lane id=":C_w2_0" index="0" allow="pedestrian" speed="1.00" length="2.87" width="4.00" shape="11.90,-8.40 11.90,-10.40 10.40,-11.90 8.40,-11.90 8.50,-10.83 8.79,-9.96 9.28,-9.27 9.96,-8.79 10.83,-8.50"/>
    </edge>
    <edge id=":C_w3" function="walkingarea">
        <lane id=":C_w3_0" index="0" allow="pedestrian" speed="1.00" length="2.87" width="4.00" shape="-8.40,-11.90 -10.40,-11.90 -11.90,-10.40 -11.90,-8.40 -10.83,-8.50 -9.96,-8.79 -9.27,-9.28 -8.79,-9.96 -8.50,-10.83"/>
    </edge>
    <edge id=":E_0" function="internal">
        <lane id=":E_0_0" index="0" disallow="pedestrian bicycle" speed="3.65" length="4.67" shape="200.00,-1.60 201.20,-0.80 201.60,0.00 201.20,0.80 200.00,1.60"/>
    </edge>
    <edge id=":E_w0" function="walkingarea">
        <lane id=":E_w0_0" index="0" allow="pedestrian" speed="1.00" length="18.80" width="2.00" shape="200.00,8.40 200.00,10.40 200.00,-10.40 200.00,-8.40"/>
    </edge>
    <edge id=":N_0" function="internal">
        <lane id=":N_0_0" index="0" disallow="pedestrian bicycle" speed="3.65" length="4.67" shape="1.60,200.00 0.80,201.20 0.00,201.60 -0.80,201.20 -1.60,200.00"/>
    </edge>
    <edge id=":N_w0" function="walkingarea">
        <lane id=":N_w0_0" index="0" allow="pedestrian" speed="1.00" length="18.80" width="2.00" shape="-8.40,200.00 -10.40,200.00 10.40,200.00 8.40,200.00"/>
    </edge>
    <edge id=":S_0" function="internal">
        <lane id=":S_0_0" index="0" disallow="pedestrian bicycle" speed="3.65" length="4.67" shape="-1.60,-200.00 -0.80,-201.20 0.00,-201.60 0.80,-201.20 1.60,-200.00"/>
    </edge>
    <edge id=":S_w0" function="walkingarea">
        <lane id=":S_w0_0" index="0" allow="pedestrian" speed="1.00" length="18.80" width="2.00" shape="8.40,-200.00 10.40,-200.00 -10.40,-200.00 -8.40,-200.00"/>
    </edge>
    <edge id=":W_0" function="internal">
        <lane id=":W_0_0" index="0" disallow="pedestrian bicycle" speed="3.65" length="4.67" shape="-200.00,1.60 -201.20,0.80 -201.60,0.00 -201.20,-0.80 -200.00,-1.60"/>
    </edge>
    <edge id=":W_w0" function="walkingarea">
        <lane id=":W_w0_0" index="0" allow="pedestrian" speed="1.00" length="18.80" width="2.00" shape="-200.00,-8.40 -200.00,-10.40 -200.00,10.40 -200.00,8.40"/>
    </edge>

    <edge id="CE" from="C" to="E" priority="-1">
        <lane id="CE_0" index="0" allow="pedestrian" speed="13.89" length="188.10" width="2.00" shape="11.90,-9.40 200.00,-9.40"/>
        <lane id="CE_1" index="1" allow="bicycle" speed="13.89" length="188.10" width="2.00" shape="11.90,-7.40 200.00,-7.40"/>
        <lane id="CE_2" index="2" disallow="pedestrian bicycle" speed="13.89" length="188.10" shape="11.90,-4.80 200.00,-4.80"/>
        <lane id="CE_3" index="3" disallow="pedestrian bicycle" speed="13.89" length="188.10" shape="11.90,-1.60 200.00,-1.60"/>
    </edge>
    <edge id="CN" from="C" to="N" priority="-1" length="188.10">
        <lane id="CN_0" index="0" allow="pedestrian" speed="13.89" length="188.10" width="2.00" shape="9.40,11.90 9.40,200.00"/>
        <lane id="CN_1" index="1" allow="bicycle" speed="13.89" length="188.10" width="2.00" shape="7.40,11.90 7.40,200.00"/>
        <lane id="CN_2" index="2" disallow="pedestrian bicycle" speed="13.89" length="188.10" shape="4.80,11.90 4.80,200.00"/>
        <lane id="CN_3" index="3" disallow="pedestrian bicycle" speed="13.89" length="188.10" shape="1.60,11.90 1.60,200.00"/>
    </edge>
    <edge id="CS" from="C" to="S" priority="-1">
        <lane id="CS_0" index="0" allow="pedestrian" speed="13.89" length="188.10" width="2.00" shape="-9.40,-11.90 -9.40,-200.00"/>
        <lane id="CS_1" index="1" allow="bicycle" speed="13.89" length="188.10" width="2.00" shape="-7.40,-11.90 -7.40,-200.00"/>
        <lane id="CS_2" index="2" disallow="pedestrian bicycle" speed="13.89" length="188.10" shape="-4.80,-11.90 -4.80,-200.00"/>
        <lane id="CS_3" index="3" disallow="pedestrian bicycle" speed="13.89" length="188.10" shape="-1.60,-11.90 -1.60,-200.00"/>
    </edge>
    <edge id="CW" from="C" to="W" priority="-1">
        <lane id="CW_0" index="0" allow="pedestrian" speed="13.89" length="188.10" width="2.00" shape="-11.90,9.40 -200.00,9.40"/>
        <lane id="CW_1" index="1" allow="bicycle" speed="13.89" length="188.10" width="2.00" shape="-11.90,7.40 -200.00,7.40"/>
        <lane id="CW_2" index="2" disallow="pedestrian bicycle" speed="13.89" length="188.10" shape="-11.90,4.80 -200.00,4.80"/>
        <lane id="CW_3" index="3" disallow="pedestrian bicycle" speed="13.89" length="188.10" shape="-11.90,1.60 -200.00,1.60"/>
    </edge>
    <edge id="EC" from="E" to="C" priority="-1">
        <lane id="EC_0" index="0" allow="pedestrian" speed="13.89" length="188.10" width="2.00" shape="200.00,9.40 11.90,9.40"/>
        <lane id="EC_1" index="1" allow="bicycle" speed="13.89" length="188.10" width="2.00" shape="200.00,7.40 11.90,7.40"/>
        <lane id="EC_2" index="2" disallow="pedestrian bicycle" speed="13.89" length="188.10" shape="200.00,4.80 11.90,4.80"/>
        <lane id="EC_3" index="3" disallow="pedestrian bicycle" speed="13.89" length="188.10" shape="200.00,1.60 11.90,1.60"/>
    </edge>
    <edge id="NC" from="N" to="C" priority="-1" length="188.10">
        <lane id="NC_0" index="0" allow="pedestrian" speed="13.89" length="188.10" width="2.00" shape="-9.40,200.00 -9.40,11.90"/>
        <lane id="NC_1" index="1" allow="bicycle" speed="13.89" length="188.10" width="2.00" shape="-7.40,200.00 -7.40,11.90"/>
        <lane id="NC_2" index="2" disallow="pedestrian bicycle" speed="13.89" length="188.10" shape="-4.80,200.00 -4.80,11.90"/>
        <lane id="NC_3" index="3" disallow="pedestrian bicycle" speed="13.89" length="188.10" shape="-1.60,200.00 -1.60,11.90"/>
    </edge>
    <edge id="SC" from="S" to="C" priority="-1">
        <lane id="SC_0" index="0" allow="pedestrian" speed="13.89" length="188.10" width="2.00" shape="9.40,-200.00 9.40,-11.90"/>
        <lane id="SC_1" index="1" allow="bicycle" speed="13.89" length="188.10" width="2.00" shape="7.40,-200.00 7.40,-11.90"/>
        <lane id="SC_2" index="2" disallow="pedestrian bicycle" speed="13.89" length="188.10" shape="4.80,-200.00 4.80,-11.90"/>
        <lane id="SC_3" index="3" disallow="pedestrian bicycle" speed="13.89" length="188.10" shape="1.60,-200.00 1.60,-11.90"/>
    </edge>
    <edge id="WC" from="W" to="C" priority="-1">
        <lane id="WC_0" index="0" allow="pedestrian" speed="13.89" length="188.10" width="2.00" shape="-200.00,-9.40 -11.90,-9.40"/>
        <lane id="WC_1" index="1" allow="bicycle" speed="13.89" length="188.10" width="2.00" shape="-200.00,-7.40 -11.90,-7.40"/>
        <lane id="WC_2" index="2" disallow="pedestrian bicycle" speed="13.89" length="188.10" shape="-200.00,-4.80 -11.90,-4.80"/>
        <lane id="WC_3" index="3" disallow="pedestrian bicycle" speed="13.89" length="188.10" shape="-200.00,-1.60 -11.90,-1.60"/>
    </edge>

    <tlLogic id="0" type="static" programID="0" offset="0">
        <phase duration="37" state="rrrrrrgGgGGgrrrrrrgGgGGgGrGr"/>
        <phase duration="3"  state="rrrrrryyyyyyrrrrrryyyyyyrrrr"/>
        <phase duration="37" state="gGgGGgrrrrrrgGgGGgrrrrrrrGrG"/>
        <phase duration="3"  state="yyyyyyrrrrrryyyyyyrrrrrrrrrr"/>
    </tlLogic>

    <junction id="C" type="traffic_light" x="0.00" y="0.00" incLanes="NC_0 NC_1 NC_2 NC_3 EC_0 EC_1 EC_2 EC_3 SC_0 SC_1 SC_2 SC_3 WC_0 WC_1 WC_2 WC_3 :C_w1_0 :C_w2_0 :C_w3_0 :C_w0_0" intLanes=":C_24_0 :C_1_0 :C_25_0 :C_3_0 :C_3_1 :C_26_0 :C_27_0 :C_7_0 :C_28_0 :C_9_0 :C_9_1 :C_29_0 :C_30_0 :C_13_0 :C_31_0 :C_15_0 :C_15_1 :C_32_0 :C_33_0 :C_19_0 :C_34_0 :C_21_0 :C_21_1 :C_35_0 :C_c0_0 :C_c1_0 :C_c2_0 :C_c3_0" shape="-10.40,11.90 10.40,11.90 10.57,11.07 10.78,10.77 11.07,10.57 11.44,10.44 11.90,10.40 11.90,-10.40 11.07,-10.57 10.77,-10.78 10.57,-11.07 10.44,-11.44 10.40,-11.90 -10.40,-11.90 -10.57,-11.07 -10.78,-10.77 -11.07,-10.57 -11.44,-10.44 -11.90,-10.40 -11.90,10.40 -11.07,10.57 -10.77,10.78 -10.57,11.07 -10.44,11.44">
        <request index="0"  response="1001000000000000000000000000" foes="1001000000000000000010000000" cont="1"/>
        <request index="1"  response="0101100101000000000000000000" foes="0101111111100000011010000100" cont="0"/>
        <request index="2"  response="1001000000000000000000000010" foes="1001000000000000011010000010" cont="1"/>
        <request index="3"  response="0101100100000000100000000000" foes="0101111110100000111010000000" cont="0"/>
        <request index="4"  response="0101100100000000100000000000" foes="0101111110100000111010000000" cont="0"/>
        <request index="5"  response="0011100000011010100000000000" foes="0011111000011010111010000000" cont="1"/>
        <request index="6"  response="0011000000000010000000000000" foes="0011000000000010000000000000" cont="1"/>
        <request index="7"  response="1010000000011010000000111111" foes="1010100000011010000100111111" cont="0"/>
        <request index="8"  response="0011000000011010000010000000" foes="0011000000011010000010000000" cont="1"/>
        <request index="9"  response="1010000000111010000000111110" foes="1010100000111010000000111110" cont="0"/>
        <request index="10" response="1010000000111010000000111110" foes="1010100000111010000000111110" cont="0"/>
        <request index="11" response="0110011010111010000000111000" foes="0110011010111010000000111000" cont="1"/>
        <request index="12" response="0110000000000000000000000000" foes="0110000010000000000000000000" cont="1"/>
        <request index="13" response="0101000000000000100101000000" foes="0101011010000100111111100000" cont="0"/>
        <request index="14" response="0110000000000010000000000000" foes="0110011010000010000000000000" cont="1"/>
        <request index="15" response="0101100000000000100100000000" foes="0101111010000000111110100000" cont="0"/>
        <request index="16" response="0101100000000000100100000000" foes="0101111010000000111110100000" cont="0"/>
        <request index="17" response="1100100000000000100000011010" foes="1100111010000000111000011010" cont="1"/>
        <request index="18" response="1100000000000000000000000010" foes="1100000000000000000000000010" cont="1"/>
        <request index="19" response="1010000000111111000000011010" foes="1010000100111111100000011010" cont="0"/>
        <request index="20" response="1100000010000000000000011010" foes="1100000010000000000000011010" cont="1"/>
        <request index="21" response="1010000000111110000000111010" foes="1010000000111110100000111010" cont="0"/>
        <request index="22" response="1010000000111110000000111010" foes="1010000000111110100000111010" cont="0"/>
        <request index="23" response="1001000000111000011010111010" foes="1001000000111000011010111010" cont="1"/>
        <request index="24" response="0000000000000000000000000000" foes="0000100000011010000101111111" cont="0"/>
        <request index="25" response="0000000000000000000000000000" foes="0000011010000101111111100000" cont="0"/>
        <request index="26" response="0000000000000000000000000000" foes="0000000101111111100000011010" cont="0"/>
        <request index="27" response="0000000000000000000000000000" foes="0000111111100000011010000101" cont="0"/>
    </junction>
    <junction id="E" type="unregulated" x="200.00" y="0.00" incLanes="CE_0 CE_1 CE_2 CE_3" intLanes=":E_0_0" shape="200.00,0.00 200.00,-10.40 200.00,0.00"/>
    <junction id="N" type="unregulated" x="0.00" y="200.00" incLanes="CN_0 CN_1 CN_2 CN_3" intLanes=":N_0_0" shape="0.00,200.00 10.40,200.00 0.00,200.00"/>
    <junction id="S" type="unregulated" x="0.00" y="-200.00" incLanes="CS_0 CS_1 CS_2 CS_3" intLanes=":S_0_0" shape="0.00,-200.00 -10.40,-200.00 0.00,-200.00"/>
    <junction id="W" type="unregulated" x="-200.00" y="0.00" incLanes="CW_0 CW_1 CW_2 CW_3" intLanes=":W_0_0" shape="-200.00,0.00 -200.00,10.40 -200.00,0.00"/>

    <junction id=":C_24_0" type="internal" x="-7.90" y="9.57" incLanes=":C_0_0" intLanes=":C_7_0 :C_9_0 :C_9_1 :C_17_0 :C_c0_0 :C_c3_0"/>
    <junction id=":C_25_0" type="internal" x="-5.40" y="8.53" incLanes=":C_2_0 NC_1" intLanes=":C_1_0 :C_7_0 :C_9_0 :C_9_1 :C_17_0 :C_c0_0 :C_c3_0"/>
    <junction id=":C_26_0" type="internal" x="0.00" y="4.73" incLanes=":C_5_0 SC_1 SC_2 SC_3" intLanes=":C_7_0 :C_9_0 :C_9_1 :C_11_0 :C_12_0 :C_13_0 :C_14_0 :C_15_0 :C_15_1 :C_19_0 :C_21_0 :C_21_1 :C_23_0 :C_c0_0 :C_c1_0"/>
    <junction id=":C_27_0" type="internal" x="9.57" y="7.90" incLanes=":C_6_0" intLanes=":C_13_0 :C_15_0 :C_15_1 :C_23_0 :C_c0_0 :C_c1_0"/>
    <junction id=":C_28_0" type="internal" x="8.53" y="5.40" incLanes=":C_8_0 EC_1" intLanes=":C_7_0 :C_13_0 :C_15_0 :C_15_1 :C_23_0 :C_c0_0 :C_c1_0"/>
    <junction id=":C_29_0" type="internal" x="4.73" y="-0.00" incLanes=":C_11_0 WC_1 WC_2 WC_3" intLanes=":C_1_0 :C_3_0 :C_3_1 :C_5_0 :C_13_0 :C_15_0 :C_15_1 :C_17_0 :C_18_0 :C_19_0 :C_20_0 :C_21_0 :C_21_1 :C_c1_0 :C_c2_0"/>
    <junction id=":C_30_0" type="internal" x="7.90" y="-9.57" incLanes=":C_12_0" intLanes=":C_5_0 :C_19_0 :C_21_0 :C_21_1 :C_c1_0 :C_c2_0"/>
    <junction id=":C_31_0" type="internal" x="5.40" y="-8.53" incLanes=":C_14_0 SC_1" intLanes=":C_5_0 :C_13_0 :C_19_0 :C_21_0 :C_21_1 :C_c1_0 :C_c2_0"/>
    <junction id=":C_32_0" type="internal" x="-0.00" y="-4.73" incLanes=":C_17_0 NC_1 NC_2 NC_3" intLanes=":C_0_0 :C_1_0 :C_2_0 :C_3_0 :C_3_1 :C_7_0 :C_9_0 :C_9_1 :C_11_0 :C_19_0 :C_21_0 :C_21_1 :C_23_0 :C_c2_0 :C_c3_0"/>
    <junction id=":C_33_0" type="internal" x="-9.57" y="-7.90" incLanes=":C_18_0" intLanes=":C_1_0 :C_3_0 :C_3_1 :C_11_0 :C_c2_0 :C_c3_0"/>
    <junction id=":C_34_0" type="internal" x="-8.53" y="-5.40" incLanes=":C_20_0 WC_1" intLanes=":C_1_0 :C_3_0 :C_3_1 :C_11_0 :C_19_0 :C_c2_0 :C_c3_0"/>
    <junction id=":C_35_0" type="internal" x="-4.73" y="0.00" incLanes=":C_23_0 EC_1 EC_2 EC_3" intLanes=":C_1_0 :C_3_0 :C_3_1 :C_5_0 :C_6_0 :C_7_0 :C_8_0 :C_9_0 :C_9_1 :C_13_0 :C_15_0 :C_15_1 :C_17_0 :C_c0_0 :C_c3_0"/>

    <connection from="CE" to="EC" fromLane="3" toLane="3" via=":E_0_0" dir="t" state="M"/>
    <connection from="CN" to="NC" fromLane="3" toLane="3" via=":N_0_0" dir="t" state="M"/>
    <connection from="CS" to="SC" fromLane="3" toLane="3" via=":S_0_0" dir="t" state="M"/>
    <connection from="CW" to="WC" fromLane="3" toLane="3" via=":W_0_0" dir="t" state="M"/>
    <connection from="EC" to="CN" fromLane="1" toLane="1" via=":C_6_0" tl="0" linkIndex="6" dir="r" state="o"/>
    <connection from="EC" to="CW" fromLane="1" toLane="1" via=":C_7_0" tl="0" linkIndex="7" dir="s" state="o"/>
    <connection from="EC" to="CN" fromLane="2" toLane="2" via=":C_8_0" tl="0" linkIndex="8" dir="r" state="o"/>
    <connection from="EC" to="CW" fromLane="2" toLane="2" via=":C_9_0" tl="0" linkIndex="9" dir="s" state="o"/>
    <connection from="EC" to="CW" fromLane="3" toLane="3" via=":C_9_1" tl="0" linkIndex="10" dir="s" state="o"/>
    <connection from="EC" to="CS" fromLane="3" toLane="3" via=":C_11_0" tl="0" linkIndex="11" dir="l" state="o"/>
    <connection from="NC" to="CW" fromLane="1" toLane="1" via=":C_0_0" tl="0" linkIndex="0" dir="r" state="o"/>
    <connection from="NC" to="CS" fromLane="1" toLane="1" via=":C_1_0" tl="0" linkIndex="1" dir="s" state="o"/>
    <connection from="NC" to="CW" fromLane="2" toLane="2" via=":C_2_0" tl="0" linkIndex="2" dir="r" state="o"/>
    <connection from="NC" to="CS" fromLane="2" toLane="2" via=":C_3_0" tl="0" linkIndex="3" dir="s" state="o"/>
    <connection from="NC" to="CS" fromLane="3" toLane="3" via=":C_3_1" tl="0" linkIndex="4" dir="s" state="o"/>
    <connection from="NC" to="CE" fromLane="3" toLane="3" via=":C_5_0" tl="0" linkIndex="5" dir="l" state="o"/>
    <connection from="SC" to="CE" fromLane="1" toLane="1" via=":C_12_0" tl="0" linkIndex="12" dir="r" state="o"/>
    <connection from="SC" to="CN" fromLane="1" toLane="1" via=":C_13_0" tl="0" linkIndex="13" dir="s" state="o"/>
    <connection from="SC" to="CE" fromLane="2" toLane="2" via=":C_14_0" tl="0" linkIndex="14" dir="r" state="o"/>
    <connection from="SC" to="CN" fromLane="2" toLane="2" via=":C_15_0" tl="0" linkIndex="15" dir="s" state="o"/>
    <connection from="SC" to="CN" fromLane="3" toLane="3" via=":C_15_1" tl="0" linkIndex="16" dir="s" state="o"/>
    <connection from="SC" to="CW" fromLane="3" toLane="3" via=":C_17_0" tl="0" linkIndex="17" dir="l" state="o"/>
    <connection from="WC" to="CS" fromLane="1" toLane="1" via=":C_18_0" tl="0" linkIndex="18" dir="r" state="o"/>
    <connection from="WC" to="CE" fromLane="1" toLane="1" via=":C_19_0" tl="0" linkIndex="19" dir="s" state="o"/>
    <connection from="WC" to="CS" fromLane="2" toLane="2" via=":C_20_0" tl="0" linkIndex="20" dir="r" state="o"/>
    <connection from="WC" to="CE" fromLane="2" toLane="2" via=":C_21_0" tl="0" linkIndex="21" dir="s" state="o"/>
    <connection from="WC" to="CE" fromLane="3" toLane="3" via=":C_21_1" tl="0" linkIndex="22" dir="s" state="o"/>
    <connection from="WC" to="CN" fromLane="3" toLane="3" via=":C_23_0" tl="0" linkIndex="23" dir="l" state="o"/>

    <connection from=":C_0" to="CW" fromLane="0" toLane="1" via=":C_24_0" dir="r" state="m"/>
    <connection from=":C_24" to="CW" fromLane="0" toLane="1" dir="r" state="M"/>
    <connection from=":C_1" to="CS" fromLane="0" toLane="1" dir="s" state="M"/>
    <connection from=":C_2" to="CW" fromLane="0" toLane="2" via=":C_25_0" dir="r" state="m"/>
    <connection from=":C_25" to="CW" fromLane="0" toLane="2" dir="r" state="M"/>
    <connection from=":C_3" to="CS" fromLane="0" toLane="2" dir="s" state="M"/>
    <connection from=":C_3" to="CS" fromLane="1" toLane="3" dir="s" state="M"/>
    <connection from=":C_5" to="CE" fromLane="0" toLane="3" via=":C_26_0" dir="l" state="m"/>
    <connection from=":C_26" to="CE" fromLane="0" toLane="3" dir="l" state="M"/>
    <connection from=":C_6" to="CN" fromLane="0" toLane="1" via=":C_27_0" dir="r" state="m"/>
    <connection from=":C_27" to="CN" fromLane="0" toLane="1" dir="r" state="M"/>
    <connection from=":C_7" to="CW" fromLane="0" toLane="1" dir="s" state="M"/>
    <connection from=":C_8" to="CN" fromLane="0" toLane="2" via=":C_28_0" dir="r" state="m"/>
    <connection from=":C_28" to="CN" fromLane="0" toLane="2" dir="r" state="M"/>
    <connection from=":C_9" to="CW" fromLane="0" toLane="2" dir="s" state="M"/>
    <connection from=":C_9" to="CW" fromLane="1" toLane="3" dir="s" state="M"/>
    <connection from=":C_11" to="CS" fromLane="0" toLane="3" via=":C_29_0" dir="l" state="m"/>
    <connection from=":C_29" to="CS" fromLane="0" toLane="3" dir="l" state="M"/>
    <connection from=":C_12" to="CE" fromLane="0" toLane="1" via=":C_30_0" dir="r" state="m"/>
    <connection from=":C_30" to="CE" fromLane="0" toLane="1" dir="r" state="M"/>
    <connection from=":C_13" to="CN" fromLane="0" toLane="1" dir="s" state="M"/>
    <connection from=":C_14" to="CE" fromLane="0" toLane="2" via=":C_31_0" dir="r" state="m"/>
    <connection from=":C_31" to="CE" fromLane="0" toLane="2" dir="r" state="M"/>
    <connection from=":C_15" to="CN" fromLane="0" toLane="2" dir="s" state="M"/>
    <connection from=":C_15" to="CN" fromLane="1" toLane="3" dir="s" state="M"/>
    <connection from=":C_17" to="CW" fromLane="0" toLane="3" via=":C_32_0" dir="l" state="m"/>
    <connection from=":C_32" to="CW" fromLane="0" toLane="3" dir="l" state="M"/>
    <connection from=":C_18" to="CS" fromLane="0" toLane="1" via=":C_33_0" dir="r" state="m"/>
    <connection from=":C_33" to="CS" fromLane="0" toLane="1" dir="r" state="M"/>
    <connection from=":C_19" to="CE" fromLane="0" toLane="1" dir="s" state="M"/>
    <connection from=":C_20" to="CS" fromLane="0" toLane="2" via=":C_34_0" dir="r" state="m"/>
    <connection from=":C_34" to="CS" fromLane="0" toLane="2" dir="r" state="M"/>
    <connection from=":C_21" to="CE" fromLane="0" toLane="2" dir="s" state="M"/>
    <connection from=":C_21" to="CE" fromLane="1" toLane="3" dir="s" state="M"/>
    <connection from=":C_23" to="CN" fromLane="0" toLane="3" via=":C_35_0" dir="l" state="m"/>
    <connection from=":C_35" to="CN" fromLane="0" toLane="3" dir="l" state="M"/>
    <connection from=":E_0" to="EC" fromLane="0" toLane="3" dir="t" state="M"/>
    <connection from=":N_0" to="NC" fromLane="0" toLane="3" dir="t" state="M"/>
    <connection from=":S_0" to="SC" fromLane="0" toLane="3" dir="t" state="M"/>
    <connection from=":W_0" to="WC" fromLane="0" toLane="3" dir="t" state="M"/>
