<?xml version="1.0" encoding="UTF-8"?>

<!-- generated on Thu 04 Mar 2021 08:27:24 PM CET by Eclipse SUMO netedit Version v1_7_0+1095-7111e26d53
<configuration xmlns:xsi="http://www.w3.org/2001/XMLSchema-instance" xsi:noNamespaceSchemaLocation="http://sumo.dlr.de/xsd/netconvertConfiguration.xsd">

    <input>
        <sumo-net-file value="cross3.net.xml"/>
    </input>

    <output>
        <output-file value="cross3.net.xml"/>
        <output.street-names value="true"/>
    </output>

    <processing>
        <geometry.min-radius.fix.railways value="false"/>
        <geometry.max-grade.fix value="false"/>
        <offset.disable-normalization value="true"/>
        <lefthand value="false"/>
    </processing>

    <junctions>
        <no-internal-links value="false"/>
        <no-turnarounds value="true"/>
        <junctions.corner-detail value="5"/>
        <junctions.limit-turn-speed value="5.5"/>
        <rectangular-lane-cut value="false"/>
    </junctions>

    <pedestrian>
        <walkingareas value="true"/>
    </pedestrian>

    <report>
        <aggregate-warnings value="5"/>
    </report>

</configuration>
-->

<net version="1.6" junctionCornerDetail="5" walkingareas="true" limitTurnSpeed="5.50" xmlns:xsi="http://www.w3.org/2001/XMLSchema-instance" xsi:noNamespaceSchemaLocation="http://sumo.dlr.de/xsd/net_file.xsd">

    <location netOffset="0.00,0.00" convBoundary="-200.00,-200.00,200.00,200.00" origBoundary="-10000000000.00,-10000000000.00,10000000000.00,10000000000.00" projParameter="!"/>

    <edge id=":C_0" function="internal">
        <lane id=":C_0_0" index="0" allow="bicycle" speed="6.68" length="4.04" width="2.00" shape="-7.40,11.90 -7.68,8.53 -7.90,7.91"/>
    </edge>
    <edge id=":C_1" function="internal">
        <lane id=":C_1_0" index="0" allow="bicycle" speed="13.89" length="24.08" width="2.00" shape="-7.40,11.90 -6.90,4.80 -5.80,0.00 -4.70,-4.80 -4.20,-11.90"/>
    </edge>
    <edge id=":C_2" function="internal">
        <lane id=":C_2_0" index="0" disallow="pedestrian bicycle" speed="9.21" length="8.54" shape="-4.80,16.90 -4.80,11.90 -5.15,8.38"/>
    </edge>
    <edge id=":C_3" function="internal">
        <lane id=":C_3_0" index="0" disallow="pedestrian bicycle" speed="13.89" length="29.08" shape="-4.80,16.90 -4.80,11.90 -4.30,4.80 -3.20,0.00 -2.10,-4.80 -1.60,-11.90"/>
    </edge>
    <edge id=":C_4" function="internal">
        <lane id=":C_4_0" index="0" disallow="pedestrian bicycle" speed="10.81" length="13.93" shape="-1.60,16.90 -1.60,11.90 -0.76,5.99 0.77,3.45"/>
    </edge>
    <edge id=":C_20" function="internal">
        <lane id=":C_20_0" index="0" allow="bicycle" speed="6.68" length="5.93" width="2.00" shape="-7.90,7.91 -8.52,6.13 -9.93,4.68 -11.90,4.20"/>
    </edge>
    <edge id=":C_21" function="internal">
        <lane id=":C_21_0" index="0" disallow="pedestrian bicycle" speed="9.21" length="10.59" shape="-5.15,8.38 -5.24,7.39 -6.57,4.18 -8.79,2.24 -11.90,1.60"/>
    </edge>
    <edge id=":C_22" function="internal">
        <lane id=":C_22_0" index="0" disallow="pedestrian bicycle" speed="10.81" length="12.84" shape="0.77,3.45 1.77,1.78 5.99,-0.76 11.90,-1.60"/>
    </edge>
    <edge id=":C_5" function="internal">
        <lane id=":C_5_0" index="0" allow="bicycle" speed="6.68" length="4.04" width="2.00" shape="11.90,7.40 8.53,7.68 7.91,7.90"/>
    </edge>
    <edge id=":C_6" function="internal">
        <lane id=":C_6_0" index="0" allow="bicycle" speed="13.89" length="24.08" width="2.00" shape="11.90,7.40 4.80,6.90 0.00,5.80 -4.80,4.70 -11.90,4.20"/>
    </edge>
    <edge id=":C_7" function="internal">
        <lane id=":C_7_0" index="0" disallow="pedestrian bicycle" speed="9.21" length="8.54" shape="16.90,4.80 11.90,4.80 8.38,5.15"/>
    </edge>
    <edge id=":C_8" function="internal">
        <lane id=":C_8_0" index="0" disallow="pedestrian bicycle" speed="13.89" length="29.08" shape="16.90,4.80 11.90,4.80 4.80,4.30 0.00,3.20 -4.80,2.10 -11.90,1.60"/>
    </edge>
    <edge id=":C_9" function="internal">
        <lane id=":C_9_0" index="0" disallow="pedestrian bicycle" speed="10.81" length="13.93" shape="16.90,1.60 11.90,1.60 5.99,0.76 3.45,-0.77"/>
    </edge>
    <edge id=":C_23" function="internal">
        <lane id=":C_23_0" index="0" allow="bicycle" speed="6.68" length="5.93" width="2.00" shape="7.91,7.90 6.12,8.52 4.68,9.93 4.20,11.90"/>
    </edge>
    <edge id=":C_24" function="internal">
        <lane id=":C_24_0" index="0" disallow="pedestrian bicycle" speed="9.21" length="10.59" shape="8.38,5.15 7.39,5.24 4.18,6.57 2.24,8.79 1.60,11.90"/>
    </edge>
    <edge id=":C_25" function="internal">
        <lane id=":C_25_0" index="0" disallow="pedestrian bicycle" speed="10.81" length="12.84" shape="3.45,-0.77 1.78,-1.77 -0.76,-5.99 -1.60,-11.90"/>
    </edge>
    <edge id=":C_10" function="internal">
        <lane id=":C_10_0" index="0" allow="bicycle" speed="6.68" length="4.04" width="2.00" shape="7.40,-11.90 7.68,-8.53 7.90,-7.91"/>
    </edge>
    <edge id=":C_11" function="internal">
        <lane id=":C_11_0" index="0" allow="bicycle" speed="13.89" length="24.08" width="2.00" shape="7.40,-11.90 6.90,-4.80 5.80,-0.00 4.70,4.80 4.20,11.90"/>
    </edge>
    <edge id=":C_12" function="internal">
        <lane id=":C_12_0" index="0" disallow="pedestrian bicycle" speed="9.21" length="8.54" shape="4.80,-16.90 4.80,-11.90 5.15,-8.38"/>
    </edge>
    <edge id=":C_13" function="internal">
        <lane id=":C_13_0" index="0" disallow="pedestrian bicycle" speed="13.89" length="29.08" shape="4.80,-16.90 4.80,-11.90 4.30,-4.80 3.20,-0.00 2.10,4.80 1.60,11.90"/>
    </edge>
    <edge id=":C_14" function="internal">
        <lane id=":C_14_0" index="0" disallow="pedestrian bicycle" speed="10.81" length="13.93" shape="1.60,-16.90 1.60,-11.90 0.76,-5.99 -0.77,-3.45"/>
    </edge>
    <edge id=":C_26" function="internal">
        <lane id=":C_26_0" index="0" allow="bicycle" speed="6.68" length="5.93" width="2.00" shape="7.90,-7.91 8.52,-6.13 9.93,-4.68 11.90,-4.20"/>
    </edge>
    <edge id=":C_27" function="internal">
        <lane id=":C_27_0" index="0" disallow="pedestrian bicycle" speed="9.21" length="10.59" shape="5.15,-8.38 5.24,-7.39 6.57,-4.18 8.79,-2.24 11.90,-1.60"/>
    </edge>
    <edge id=":C_28" function="internal">
        <lane id=":C_28_0" index="0" disallow="pedestrian bicycle" speed="10.81" length="12.84" shape="-0.77,-3.45 -1.77,-1.78 -5.99,0.76 -11.90,1.60"/>
    </edge>
    <edge id=":C_15" function="internal">
        <lane id=":C_15_0" index="0" allow="bicycle" speed="6.68" length="4.04" width="2.00" shape="-11.90,-7.40 -8.53,-7.68 -7.91,-7.90"/>
    </edge>
    <edge id=":C_16" function="internal">
        <lane id=":C_16_0" index="0" allow="bicycle" speed="13.89" length="24.08" width="2.00" shape="-11.90,-7.40 -4.80,-6.90 -0.00,-5.80 4.80,-4.70 11.90,-4.20"/>
    </edge>
    <edge id=":C_17" function="internal">
        <lane id=":C_17_0" index="0" disallow="pedestrian bicycle" speed="9.21" length="8.54" shape="-16.90,-4.80 -11.90,-4.80 -8.38,-5.15"/>
    </edge>
    <edge id=":C_18" function="internal">
        <lane id=":C_18_0" index="0" disallow="pedestrian bicycle" speed="13.89" length="29.08" shape="-16.90,-4.80 -11.90,-4.80 -4.80,-4.30 -0.00,-3.20 4.80,-2.10 11.90,-1.60"/>
    </edge>
    <edge id=":C_19" function="internal">
        <lane id=":C_19_0" index="0" disallow="pedestrian bicycle" speed="10.81" length="13.93" shape="-16.90,-1.60 -11.90,-1.60 -5.99,-0.76 -3.45,0.77"/>
    </edge>
    <edge id=":C_29" function="internal">
        <lane id=":C_29_0" index="0" allow="bicycle" speed="6.68" length="5.93" width="2.00" shape="-7.91,-7.90 -6.13,-8.52 -4.68,-9.93 -4.20,-11.90"/>
    </edge>
    <edge id=":C_30" function="internal">
        <lane id=":C_30_0" index="0" disallow="pedestrian bicycle" speed="9.21" length="10.59" shape="-8.38,-5.15 -7.39,-5.24 -4.18,-6.57 -2.24,-8.79 -1.60,-11.90"/>
    </edge>
    <edge id=":C_31" function="internal">
        <lane id=":C_31_0" index="0" disallow="pedestrian bicycle" speed="10.81" length="12.84" shape="-3.45,0.77 -1.78,1.77 0.76,5.99 1.60,11.90"/>
    </edge>
    <edge id=":C_c0" function="crossing" crossingEdges="CN NC">
        <lane id=":C_c0_0" index="0" allow="pedestrian" speed="1.00" length="13.60" width="4.00" shape="5.20,9.90 -8.40,9.90"/>
    </edge>
    <edge id=":C_c1" function="crossing" crossingEdges="CE EC">
        <lane id=":C_c1_0" index="0" allow="pedestrian" speed="1.00" length="13.60" width="4.00" shape="9.90,-5.20 9.90,8.40"/>
    </edge>
    <edge id=":C_c2" function="crossing" crossingEdges="CS SC">
        <lane id=":C_c2_0" index="0" allow="pedestrian" speed="1.00" length="13.60" width="4.00" shape="-5.20,-9.90 8.40,-9.90"/>
    </edge>
    <edge id=":C_c3" function="crossing" crossingEdges="CW WC">
        <lane id=":C_c3_0" index="0" allow="pedestrian" speed="1.00" length="13.60" width="4.00" shape="-9.90,5.20 -9.90,-8.40"/>
    </edge>
    <edge id=":C_w0" function="walkingarea">
        <lane id=":C_w0_0" index="0" allow="pedestrian" speed="1.00" length="4.57" width="4.00" shape="-11.90,5.20 -11.90,7.20 -10.40,11.90 -8.40,11.90 -8.50,9.85 -8.79,8.18 -9.28,6.88 -9.96,5.94 -10.83,5.39"/>
    </edge>
    <edge id=":C_w1" function="walkingarea">
        <lane id=":C_w1_0" index="0" allow="pedestrian" speed="1.00" length="4.57" width="4.00" shape="5.20,11.90 7.20,11.90 11.90,10.40 11.90,8.40 9.85,8.50 8.18,8.79 6.88,9.28 5.94,9.96 5.39,10.83"/>
    </edge>
    <edge id=":C_w2" function="walkingarea">
        <lane id=":C_w2_0" index="0" allow="pedestrian" speed="1.00" length="4.57" width="4.00" shape="11.90,-5.20 11.90,-7.20 10.40,-11.90 8.40,-11.90 8.50,-9.85 8.79,-8.18 9.27,-6.88 9.96,-5.94 10.83,-5.39"/>
    </edge>
    <edge id=":C_w3" function="walkingarea">
        <lane id=":C_w3_0" index="0" allow="pedestrian" speed="1.00" length="4.57" width="4.00" shape="-5.20,-11.90 -7.20,-11.90 -11.90,-10.40 -11.90,-8.40 -9.85,-8.50 -8.18,-8.79 -6.88,-9.28 -5.94,-9.96 -5.39,-10.83"/>
    </edge>
    <edge id=":E0_0" function="internal">
        <lane id=":E0_0_0" index="0" disallow="pedestrian bicycle" speed="3.65" length="4.67" shape="200.00,-1.60 201.20,-0.80 201.60,0.00 201.20,0.80 200.00,1.60"/>
    </edge>
    <edge id=":E0_w0" function="walkingarea">
        <lane id=":E0_w0_0" index="0" allow="pedestrian" speed="1.00" length="12.40" width="2.00" shape="200.00,5.20 200.00,7.20 200.00,-7.20 200.00,-5.20"/>
    </edge>
    <edge id=":E1_0" function="internal">
        <lane id=":E1_0_0" index="0" allow="bicycle" speed="13.89" length="8.54" width="2.00" shape="54.00,4.20 51.54,4.70 50.00,5.80 48.46,6.90 46.00,7.40"/>
        <lane id=":E1_0_1" index="1" disallow="pedestrian bicycle" speed="13.89" length="8.54" shape="54.00,1.60 51.54,2.10 50.00,3.20 48.46,4.30 46.00,4.80"/>
        <lane id=":E1_0_2" index="2" disallow="pedestrian bicycle" speed="13.89" length="8.54" shape="54.00,1.60 46.00,1.60"/>
    </edge>
    <edge id=":E1_3" function="internal">
        <lane id=":E1_3_0" index="0" allow="bicycle" speed="13.89" length="8.00" width="2.00" shape="46.00,-4.20 54.00,-4.20"/>
        <lane id=":E1_3_1" index="1" disallow="pedestrian bicycle" speed="13.89" length="8.00" shape="46.00,-1.60 54.00,-1.60"/>
    </edge>
    <edge id=":E1_w0" function="walkingarea">
        <lane id=":E1_w0_0" index="0" allow="pedestrian" speed="1.00" length="8.62" width="2.00" shape="46.00,8.40 46.00,10.40 54.00,7.20 54.00,5.20 52.21,5.44 50.97,6.03 50.00,6.80 49.03,7.57 47.79,8.16"/>
    </edge>
    <edge id=":E1_w1" function="walkingarea">
        <lane id=":E1_w1_0" index="0" allow="pedestrian" speed="1.00" length="8.00" width="2.00" shape="54.00,-5.20 54.00,-7.20 46.00,-7.20 46.00,-5.20"/>
    </edge>
    <edge id=":N0_0" function="internal">
        <lane id=":N0_0_0" index="0" disallow="pedestrian bicycle" speed="3.65" length="4.67" shape="1.60,200.00 0.80,201.20 -0.00,201.60 -0.80,201.20 -1.60,200.00"/>
    </edge>
    <edge id=":N0_w0" function="walkingarea">
        <lane id=":N0_w0_0" index="0" allow="pedestrian" speed="1.00" length="12.40" width="2.00" shape="-5.20,200.00 -7.20,200.00 7.20,200.00 5.20,200.00"/>
    </edge>
    <edge id=":N1_0" function="internal">
        <lane id=":N1_0_0" index="0" allow="bicycle" speed="13.89" length="8.54" width="2.00" shape="-4.20,54.00 -4.70,51.54 -5.80,50.00 -6.90,48.46 -7.40,46.00"/>
        <lane id=":N1_0_1" index="1" disallow="pedestrian bicycle" speed="13.89" length="8.54" shape="-1.60,54.00 -2.10,51.54 -3.20,50.00 -4.30,48.46 -4.80,46.00"/>
        <lane id=":N1_0_2" index="2" disallow="pedestrian bicycle" speed="13.89" length="8.54" shape="-1.60,54.00 -1.60,46.00"/>
    </edge>
    <edge id=":N1_w0" function="walkingarea">
        <lane id=":N1_w0_0" index="0" allow="pedestrian" speed="1.00" length="8.62" width="2.00" shape="-8.40,46.00 -10.40,46.00 -7.20,54.00 -5.20,54.00 -5.44,52.21 -6.03,50.97 -6.80,50.00 -7.57,49.03 -8.16,47.79"/>
    </edge>
    <edge id=":S0_0" function="internal">
        <lane id=":S0_0_0" index="0" disallow="pedestrian bicycle" speed="3.65" length="4.67" shape="-1.60,-200.00 -0.80,-201.20 0.00,-201.60 0.80,-201.20 1.60,-200.00"/>
    </edge>
    <edge id=":S0_w0" function="walkingarea">
        <lane id=":S0_w0_0" index="0" allow="pedestrian" speed="1.00" length="12.40" width="2.00" shape="5.20,-200.00 7.20,-200.00 -7.20,-200.00 -5.20,-200.00"/>
    </edge>
    <edge id=":S1_0" function="internal">
        <lane id=":S1_0_0" index="0" allow="bicycle" speed="13.89" length="8.54" width="2.00" shape="4.20,-54.00 4.70,-51.54 5.80,-50.00 6.90,-48.46 7.40,-46.00"/>
        <lane id=":S1_0_1" index="1" disallow="pedestrian bicycle" speed="13.89" length="8.54" shape="1.60,-54.00 2.10,-51.54 3.20,-50.00 4.30,-48.46 4.80,-46.00"/>
        <lane id=":S1_0_2" index="2" disallow="pedestrian bicycle" speed="13.89" length="8.54" shape="1.60,-54.00 1.60,-46.00"/>
    </edge>
    <edge id=":S1_w0" function="walkingarea">
        <lane id=":S1_w0_0" index="0" allow="pedestrian" speed="1.00" length="8.62" width="2.00" shape="8.40,-46.00 10.40,-46.00 7.20,-54.00 5.20,-54.00 5.44,-52.21 6.03,-50.97 6.80,-50.00 7.57,-49.03 8.16,-47.79"/>
    </edge>
    <edge id=":W0_0" function="internal">
        <lane id=":W0_0_0" index="0" disallow="pedestrian bicycle" speed="3.65" length="4.67" shape="-200.00,1.60 -201.20,0.80 -201.60,-0.00 -201.20,-0.80 -200.00,-1.60"/>
    </edge>
    <edge id=":W0_w0" function="walkingarea">
        <lane id=":W0_w0_0" index="0" allow="pedestrian" speed="1.00" length="12.40" width="2.00" shape="-200.00,-5.20 -200.00,-7.20 -200.00,7.20 -200.00,5.20"/>
    </edge>
    <edge id=":W1_0" function="internal">
        <lane id=":W1_0_0" index="0" allow="bicycle" speed="13.89" length="8.54" width="2.00" shape="-54.00,-4.20 -51.54,-4.70 -50.00,-5.80 -48.46,-6.90 -46.00,-7.40"/>
        <lane id=":W1_0_1" index="1" disallow="pedestrian bicycle" speed="13.89" length="8.54" shape="-54.00,-1.60 -51.54,-2.10 -50.00,-3.20 -48.46,-4.30 -46.00,-4.80"/>
        <lane id=":W1_0_2" index="2" disallow="pedestrian bicycle" speed="13.89" length="8.54" shape="-54.00,-1.60 -46.00,-1.60"/>
    </edge>
    <edge id=":W1_w0" function="walkingarea">
        <lane id=":W1_w0_0" index="0" allow="pedestrian" speed="1.00" length="8.62" width="2.00" shape="-46.00,-8.40 -46.00,-10.40 -54.00,-7.20 -54.00,-5.20 -52.21,-5.44 -50.97,-6.03 -50.00,-6.80 -49.03,-7.57 -47.79,-8.16"/>
    </edge>

    <edge id="CE" from="C" to="E1" priority="-1">
        <lane id="CE_0" index="0" allow="pedestrian" speed="13.89" length="34.10" width="2.00" shape="11.90,-6.20 46.00,-6.20"/>
        <lane id="CE_1" index="1" allow="bicycle" speed="13.89" length="34.10" width="2.00" shape="11.90,-4.20 46.00,-4.20"/>
        <lane id="CE_2" index="2" disallow="pedestrian bicycle" speed="13.89" length="34.10" shape="11.90,-1.60 46.00,-1.60"/>
    </edge>
    <edge id="CE.95" from="E1" to="E0" priority="-1">
        <lane id="CE.95_0" index="0" allow="pedestrian" speed="13.89" length="146.00" width="2.00" shape="54.00,-6.20 200.00,-6.20"/>
        <lane id="CE.95_1" index="1" allow="bicycle" speed="13.89" length="146.00" width="2.00" shape="54.00,-4.20 200.00,-4.20"/>
        <lane id="CE.95_2" index="2" disallow="pedestrian bicycle" speed="13.89" length="146.00" shape="54.00,-1.60 200.00,-1.60"/>
    </edge>
    <edge id="CN" from="C" to="N0" priority="-1" length="188.10">
        <lane id="CN_0" index="0" allow="pedestrian" speed="13.89" length="188.10" width="2.00" shape="6.20,11.90 6.20,200.00"/>
        <lane id="CN_1" index="1" allow="bicycle" speed="13.89" length="188.10" width="2.00" shape="4.20,11.90 4.20,200.00"/>
        <lane id="CN_2" index="2" disallow="pedestrian bicycle" speed="13.89" length="188.10" shape="1.60,11.90 1.60,200.00"/>
    </edge>
    <edge id="CS" from="C" to="S0" priority="-1">
        <lane id="CS_0" index="0" allow="pedestrian" speed="13.89" length="188.10" width="2.00" shape="-6.20,-11.90 -6.20,-200.00"/>
        <lane id="CS_1" index="1" allow="bicycle" speed="13.89" length="188.10" width="2.00" shape="-4.20,-11.90 -4.20,-200.00"/>
        <lane id="CS_2" index="2" disallow="pedestrian bicycle" speed="13.89" length="188.10" shape="-1.60,-11.90 -1.60,-200.00"/>
    </edge>
    <edge id="CW" from="C" to="W0" priority="-1">
        <lane id="CW_0" index="0" allow="pedestrian" speed="13.89" length="188.10" width="2.00" shape="-11.90,6.20 -200.00,6.20"/>
        <lane id="CW_1" index="1" allow="bicycle" speed="13.89" length="188.10" width="2.00" shape="-11.90,4.20 -200.00,4.20"/>
        <lane id="CW_2" index="2" disallow="pedestrian bicycle" speed="13.89" length="188.10" shape="-11.90,1.60 -200.00,1.60"/>
    </edge>
    <edge id="EC" from="E1" to="C" priority="-1">
        <lane id="EC_0" index="0" allow="pedestrian" speed="13.89" length="31.60" width="2.00" shape="46.00,9.40 11.90,9.40"/>
        <lane id="EC_1" index="1" allow="bicycle" speed="13.89" length="31.60" width="2.00" shape="46.00,7.40 11.90,7.40"/>
        <lane id="EC_2" index="2" disallow="pedestrian bicycle" speed="13.89" length="31.60" endOffset="5.00" shape="46.00,4.80 16.90,4.80"/>
        <lane id="EC_3" index="3" disallow="pedestrian bicycle" speed="13.89" length="31.60" endOffset="5.00" shape="46.00,1.60 16.90,1.60"/>
    </edge>
    <edge id="EE" from="E0" to="E1" priority="-1">
        <lane id="EE_0" index="0" allow="pedestrian" speed="13.89" length="146.00" width="2.00" shape="200.00,6.20 54.00,6.20"/>
        <lane id="EE_1" index="1" allow="bicycle" speed="13.89" length="146.00" width="2.00" shape="200.00,4.20 54.00,4.20"/>
        <lane id="EE_2" index="2" disallow="pedestrian bicycle" speed="13.89" length="146.00" shape="200.00,1.60 54.00,1.60"/>
    </edge>
    <edge id="NC" from="N1" to="C" priority="-1">
        <lane id="NC_0" index="0" allow="pedestrian" speed="13.89" length="31.60" width="2.00" shape="-9.40,46.00 -9.40,11.90"/>
        <lane id="NC_1" index="1" allow="bicycle" speed="13.89" length="31.60" width="2.00" shape="-7.40,46.00 -7.40,11.90"/>
        <lane id="NC_2" index="2" disallow="pedestrian bicycle" speed="13.89" length="31.60" endOffset="5.00" shape="-4.80,46.00 -4.80,16.90"/>
        <lane id="NC_3" index="3" disallow="pedestrian bicycle" speed="13.89" length="31.60" endOffset="5.00" shape="-1.60,46.00 -1.60,16.90"/>
    </edge>
    <edge id="NN" from="N0" to="N1" priority="-1" length="188.10">
        <lane id="NN_0" index="0" allow="pedestrian" speed="13.89" length="188.10" width="2.00" shape="-6.20,200.00 -6.20,54.00"/>
        <lane id="NN_1" index="1" allow="bicycle" speed="13.89" length="188.10" width="2.00" shape="-4.20,200.00 -4.20,54.00"/>
        <lane id="NN_2" index="2" disallow="pedestrian bicycle" speed="13.89" length="188.10" shape="-1.60,200.00 -1.60,54.00"/>
    </edge>
    <edge id="SC" from="S1" to="C" priority="-1">
        <lane id="SC_0" index="0" allow="pedestrian" speed="13.89" length="31.60" width="2.00" shape="9.40,-46.00 9.40,-11.90"/>
        <lane id="SC_1" index="1" allow="bicycle" speed="13.89" length="31.60" width="2.00" shape="7.40,-46.00 7.40,-11.90"/>
        <lane id="SC_2" index="2" disallow="pedestrian bicycle" speed="13.89" length="31.60" endOffset="5.00" shape="4.80,-46.00 4.80,-16.90"/>
        <lane id="SC_3" index="3" disallow="pedestrian bicycle" speed="13.89" length="31.60" endOffset="5.00" shape="1.60,-46.00 1.60,-16.90"/>
    </edge>
    <edge id="SS" from="S0" to="S1" priority="-1">
        <lane id="SS_0" index="0" allow="pedestrian" speed="13.89" length="146.00" width="2.00" shape="6.20,-200.00 6.20,-54.00"/>
        <lane id="SS_1" index="1" allow="bicycle" speed="13.89" length="146.00" width="2.00" shape="4.20,-200.00 4.20,-54.00"/>
        <lane id="SS_2" index="2" disallow="pedestrian bicycle" speed="13.89" length="146.00" shape="1.60,-200.00 1.60,-54.00"/>
    </edge>
    <edge id="WC" from="W1" to="C" priority="-1">
        <lane id="WC_0" index="0" allow="pedestrian" speed="13.89" length="31.60" width="2.00" shape="-46.00,-9.40 -11.90,-9.40"/>
        <lane id="WC_1" index="1" allow="bicycle" speed="13.89" length="31.60" width="2.00" shape="-46.00,-7.40 -11.90,-7.40"/>
        <lane id="WC_2" index="2" disallow="pedestrian bicycle" speed="13.89" length="31.60" endOffset="5.00" shape="-46.00,-4.80 -16.90,-4.80"/>
        <lane id="WC_3" index="3" disallow="pedestrian bicycle" speed="13.89" length="31.60" endOffset="5.00" shape="-46.00,-1.60 -16.90,-1.60"/>
    </edge>
    <edge id="WW" from="W0" to="W1" priority="-1">
        <lane id="WW_0" index="0" allow="pedestrian" speed="13.89" length="146.00" width="2.00" shape="-200.00,-6.20 -54.00,-6.20"/>
        <lane id="WW_1" index="1" allow="bicycle" speed="13.89" length="146.00" width="2.00" shape="-200.00,-4.20 -54.00,-4.20"/>
        <lane id="WW_2" index="2" disallow="pedestrian bicycle" speed="13.89" length="146.00" shape="-200.00,-1.60 -54.00,-1.60"/>
    </edge>

    <tlLogic id="C" type="static" programID="0" offset="0">
        <phase duration="28" state="gGgGgrrrrrgGgGgrrrrrrGrG"/>
        <phase duration="5"  state="gGgGgrrrrrgGgGgrrrrrrrrr"/>
        <phase duration="3"  state="yyyygrrrrryyyygrrrrrrrrr"/>
        <phase duration="6"  state="rrrrGrrrrrrrrrGrrrrrrrrr"/>
        <phase duration="3"  state="rrrryrrrrrrrrryrrrrrrrrr"/>
        <phase duration="28" state="rrrrrgGgGgrrrrrgGgGgGrGr"/>
        <phase duration="5"  state="rrrrrgGgGgrrrrrgGgGgrrrr"/>
        <phase duration="3"  state="rrrrryyyygrrrrryyyygrrrr"/>
        <phase duration="6"  state="rrrrrrrrrGrrrrrrrrrGrrrr"/>
        <phase duration="3"  state="rrrrrrrrryrrrrrrrrryrrrr"/>
    </tlLogic>

    <junction id="C" type="traffic_light" x="0.00" y="0.00" incLanes="NC_0 NC_1 NC_2 NC_3 EC_0 EC_1 EC_2 EC_3 SC_0 SC_1 SC_2 SC_3 WC_0 WC_1 WC_2 WC_3 :C_w1_0 :C_w2_0 :C_w3_0 :C_w0_0" intLanes=":C_20_0 :C_1_0 :C_21_0 :C_3_0 :C_22_0 :C_23_0 :C_6_0 :C_24_0 :C_8_0 :C_25_0 :C_26_0 :C_11_0 :C_27_0 :C_13_0 :C_28_0 :C_29_0 :C_16_0 :C_30_0 :C_18_0 :C_31_0 :C_c0_0 :C_c1_0 :C_c2_0 :C_c3_0" shape="-10.40,11.90 7.20,11.90 7.72,11.07 8.38,10.77 9.29,10.57 10.46,10.44 11.90,10.40 11.90,-7.20 11.07,-7.72 10.78,-8.38 10.57,-9.29 10.44,-10.46 10.40,-11.90 -7.20,-11.90 -7.72,-11.07 -8.38,-10.77 -9.29,-10.57 -10.46,-10.44 -11.90,-10.40 -11.90,7.20 -11.07,7.72 -10.77,8.38 -10.57,9.29 -10.44,10.46">
        <request index="0"  response="100100000000000000000000" foes="100100000000000001000000" cont="1"/>
        <request index="1"  response="010110101000000000000000" foes="010111111100000101000100" cont="0"/>
        <request index="2"  response="100100000000000000000010" foes="100100000100000101000010" cont="1"/>
        <request index="3"  response="010110100000001000000000" foes="010111110100001101000000" cont="0"/>
        <request index="4"  response="001110000011101000000000" foes="001111000011101101000000" cont="1"/>
        <request index="5"  response="001100000000100000000000" foes="001100000000100000000000" cont="1"/>
        <request index="6"  response="101000000010100000011111" foes="101010000010100010011111" cont="0"/>
        <request index="7"  response="001100000010100001000000" foes="001110000010100001000000" cont="1"/>
        <request index="8"  response="101000000110100000011110" foes="101010000110100000011110" cont="0"/>
        <request index="9"  response="011001110110100000011000" foes="011001110110100000011000" cont="1"/>
        <request index="10" response="011000000000000000000000" foes="011000010000000000000000" cont="1"/>
        <request index="11" response="010100000000001010100000" foes="010101010001001111110000" cont="0"/>
        <request index="12" response="011000000000100000000000" foes="011001010000100000010000" cont="1"/>
        <request index="13" response="010110000000001010000000" foes="010111010000001111010000" cont="0"/>
        <request index="14" response="110010000000001000001110" foes="110011010000001100001110" cont="1"/>
        <request index="15" response="110000000000000000000010" foes="110000000000000000000010" cont="1"/>
        <request index="16" response="101000000111110000001010" foes="101000100111111000001010" cont="0"/>
        <request index="17" response="110000010000000000001010" foes="110000010000001000001010" cont="1"/>
        <request index="18" response="101000000111100000011010" foes="101000000111101000011010" cont="0"/>
        <request index="19" response="100100000110000111011010" foes="100100000110000111011010" cont="1"/>
        <request index="20" response="000000000000000000000000" foes="000010000010100010111111" cont="0"/>
        <request index="21" response="000000000000000000000000" foes="000001010001011111110000" cont="0"/>
        <request index="22" response="000000000000000000000000" foes="000000101111111000001010" cont="0"/>
        <request index="23" response="000000000000000000000000" foes="000011111100000101000101" cont="0"/>
    </junction>
    <junction id="E0" type="unregulated" x="200.00" y="0.00" incLanes="CE.95_0 CE.95_1 CE.95_2" intLanes=":E0_0_0" shape="200.00,0.00 200.00,-7.20 200.00,0.00"/>
    <junction id="E1" type="priority" x="50.00" y="0.00" incLanes="EE_0 EE_1 EE_2 CE_0 CE_1 CE_2" intLanes=":E1_0_0 :E1_0_1 :E1_0_2 :E1_3_0 :E1_3_1" shape="54.00,7.20 54.00,-7.20 46.00,-7.20 46.00,10.40 49.03,9.57 50.97,8.03 52.21,7.44">
        <request index="0" response="00000" foes="00000" cont="0"/>
        <request index="1" response="00000" foes="00000" cont="0"/>
        <request index="2" response="00000" foes="00000" cont="0"/>
        <request index="3" response="00000" foes="00000" cont="0"/>
        <request index="4" response="00000" foes="00000" cont="0"/>
    </junction>
    <junction id="N0" type="unregulated" x="0.00" y="200.00" incLanes="CN_0 CN_1 CN_2" intLanes=":N0_0_0" shape="0.00,200.00 7.20,200.00 0.00,200.00"/>
    <junction id="N1" type="priority" x="0.00" y="50.00" incLanes="NN_0 NN_1 NN_2" intLanes=":N1_0_0 :N1_0_1 :N1_0_2" shape="-7.20,54.00 0.00,54.00 0.00,46.00 -10.40,46.00 -9.57,49.03 -8.03,50.97 -7.44,52.21">
        <request index="0" response="000" foes="000" cont="0"/>
        <request index="1" response="000" foes="000" cont="0"/>
        <request index="2" response="000" foes="000" cont="0"/>
    </junction>
    <junction id="S0" type="unregulated" x="0.00" y="-200.00" incLanes="CS_0 CS_1 CS_2" intLanes=":S0_0_0" shape="0.00,-200.00 -7.20,-200.00 0.00,-200.00"/>
    <junction id="S1" type="priority" x="0.00" y="-50.00" incLanes="SS_0 SS_1 SS_2" intLanes=":S1_0_0 :S1_0_1 :S1_0_2" shape="0.00,-46.00 10.40,-46.00 9.57,-49.03 8.03,-50.97 7.44,-52.21 7.20,-54.00 0.00,-54.00">
        <request index="0" response="000" foes="000" cont="0"/>
        <request index="1" response="000" foes="000" cont="0"/>
        <request index="2" response="000" foes="000" cont="0"/>
    </junction>
    <junction id="W0" type="unregulated" x="-200.00" y="0.00" incLanes="CW_0 CW_1 CW_2" intLanes=":W0_0_0" shape="-200.00,0.00 -200.00,7.20 -200.00,0.00"/>
    <junction id="W1" type="priority" x="-50.00" y="0.00" incLanes="WW_0 WW_1 WW_2" intLanes=":W1_0_0 :W1_0_1 :W1_0_2" shape="-46.00,0.00 -46.00,-10.40 -49.03,-9.57 -50.97,-8.03 -52.21,-7.44 -54.00,-7.20 -54.00,0.00">
        <request index="0" response="000" foes="000" cont="0"/>
        <request index="1" response="000" foes="000" cont="0"/>
        <request index="2" response="000" foes="000" cont="0"/>
    </junction>

    <junction id=":C_20_0" type="internal" x="-7.90" y="7.91" incLanes=":C_0_0" intLanes=":C_6_0 :C_8_0 :C_14_0 :C_c0_0 :C_c3_0"/>
    <junction id=":C_21_0" type="internal" x="-5.15" y="8.38" incLanes=":C_2_0 NC_1" intLanes=":C_1_0 :C_6_0 :C_8_0 :C_14_0 :C_c0_0 :C_c3_0"/>
    <junction id=":C_22_0" type="internal" x="0.77" y="3.45" incLanes=":C_4_0 SC_1 SC_2" intLanes=":C_6_0 :C_8_0 :C_9_0 :C_10_0 :C_11_0 :C_12_0 :C_13_0 :C_16_0 :C_18_0 :C_19_0 :C_c0_0 :C_c1_0"/>
    <junction id=":C_23_0" type="internal" x="7.91" y="7.90" incLanes=":C_5_0" intLanes=":C_11_0 :C_13_0 :C_19_0 :C_c0_0 :C_c1_0"/>
    <junction id=":C_24_0" type="internal" x="8.38" y="5.15" incLanes=":C_7_0 EC_1" intLanes=":C_6_0 :C_11_0 :C_13_0 :C_19_0 :C_c0_0 :C_c1_0"/>
    <junction id=":C_25_0" type="internal" x="3.45" y="-0.77" incLanes=":C_9_0 WC_1 WC_2" intLanes=":C_1_0 :C_3_0 :C_4_0 :C_11_0 :C_13_0 :C_14_0 :C_15_0 :C_16_0 :C_17_0 :C_18_0 :C_c1_0 :C_c2_0"/>
    <junction id=":C_26_0" type="internal" x="7.90" y="-7.91" incLanes=":C_10_0" intLanes=":C_4_0 :C_16_0 :C_18_0 :C_c1_0 :C_c2_0"/>
    <junction id=":C_27_0" type="internal" x="5.15" y="-8.38" incLanes=":C_12_0 SC_1" intLanes=":C_4_0 :C_11_0 :C_16_0 :C_18_0 :C_c1_0 :C_c2_0"/>
    <junction id=":C_28_0" type="internal" x="-0.77" y="-3.45" incLanes=":C_14_0 NC_1 NC_2" intLanes=":C_0_0 :C_1_0 :C_2_0 :C_3_0 :C_6_0 :C_8_0 :C_9_0 :C_16_0 :C_18_0 :C_19_0 :C_c2_0 :C_c3_0"/>
    <junction id=":C_29_0" type="internal" x="-7.91" y="-7.90" incLanes=":C_15_0" intLanes=":C_1_0 :C_3_0 :C_9_0 :C_c2_0 :C_c3_0"/>