<?xml version="1.0" encoding="UTF-8"?>

<!-- generated on Thu 04 Mar 2021 09:00:33 PM CET by Eclipse SUMO netedit Version v1_7_0+1095-7111e26d53
<configuration xmlns:xsi="http://www.w3.org/2001/XMLSchema-instance" xsi:noNamespaceSchemaLocation="http://sumo.dlr.de/xsd/netconvertConfiguration.xsd">

    <input>
        <sumo-net-file value="cross4.net.xml"/>
    </input>

    <output>
        <output-file value="cross4.net.xml"/>
    </output>

    <processing>
        <geometry.min-radius.fix.railways value="false"/>
        <geometry.max-grade.fix value="false"/>
        <offset.disable-normalization value="true"/>
        <lefthand value="false"/>
    </processing>

    <junctions>
        <no-internal-links value="false"/>
        <no-turnarounds value="true"/>
        <junctions.corner-detail value="5"/>
        <junctions.limit-turn-speed value="5.5"/>
        <rectangular-lane-cut value="false"/>
    </junctions>

    <pedestrian>
        <walkingareas value="true"/>
    </pedestrian>

    <report>
        <aggregate-warnings value="5"/>
    </report>

</configuration>
-->

<net version="1.6" junctionCornerDetail="5" walkingareas="true" limitTurnSpeed="5.50" xmlns:xsi="http://www.w3.org/2001/XMLSchema-instance" xsi:noNamespaceSchemaLocation="http://sumo.dlr.de/xsd/net_file.xsd">

    <location netOffset="0.00,0.00" convBoundary="-200.00,-200.00,200.00,200.00" origBoundary="-10000000000.00,-10000000000.00,10000000000.00,10000000000.00" projParameter="!"/>

    <edge id=":C_0" function="internal">
        <lane id=":C_0_0" index="0" allow="bicycle" speed="5.82" length="2.51" width="2.00" shape="-7.40,11.90 -7.68,9.84 -7.90,9.46"/>
    </edge>
    <edge id=":C_1" function="internal">
        <lane id=":C_1_0" index="0" allow="bicycle" speed="13.89" length="20.80" width="2.00" shape="-7.40,11.90 -7.20,-8.90"/>
    </edge>
    <edge id=":C_2" function="internal">
        <lane id=":C_2_0" index="0" disallow="pedestrian bicycle" speed="8.61" length="8.47" shape="-4.80,16.90 -4.80,11.90 -5.24,8.71 -5.37,8.49"/>
    </edge>
    <edge id=":C_3" function="internal">
        <lane id=":C_3_0" index="0" disallow="pedestrian bicycle" speed="13.89" length="25.80" shape="-4.80,16.90 -4.80,11.90 -4.60,-8.90"/>
    </edge>
    <edge id=":C_4" function="internal">
        <lane id=":C_4_0" index="0" disallow="pedestrian bicycle" speed="10.34" length="20.35" shape="-1.60,16.90 -1.60,11.90 -0.94,5.99 1.02,1.78 4.31,-0.76 4.90,-0.87"/>
    </edge>
    <edge id=":C_20" function="internal">
        <lane id=":C_20_0" index="0" allow="bicycle" speed="5.82" length="4.90" width="2.00" shape="-7.90,9.46 -8.52,8.38 -9.93,7.49 -11.90,7.20"/>
    </edge>
    <edge id=":C_21" function="internal">
        <lane id=":C_21_0" index="0" disallow="pedestrian bicycle" speed="8.61" length="8.14" shape="-5.37,8.49 -6.57,6.43 -8.79,5.06 -11.90,4.60"/>
    </edge>
    <edge id=":C_22" function="internal">
        <lane id=":C_22_0" index="0" disallow="pedestrian bicycle" speed="10.34" length="4.07" shape="4.90,-0.87 8.90,-1.60"/>
    </edge>
    <edge id=":C_5" function="internal">
        <lane id=":C_5_0" index="0" allow="bicycle" speed="5.82" length="2.51" width="2.00" shape="8.90,7.40 6.84,7.68 6.46,7.90"/>
    </edge>
    <edge id=":C_6" function="internal">
        <lane id=":C_6_0" index="0" allow="bicycle" speed="13.89" length="20.80" width="2.00" shape="8.90,7.40 -11.90,7.20"/>
    </edge>
    <edge id=":C_7" function="internal">
        <lane id=":C_7_0" index="0" disallow="pedestrian bicycle" speed="8.61" length="8.47" shape="13.90,4.80 8.90,4.80 5.71,5.24 5.49,5.37"/>
    </edge>
    <edge id=":C_8" function="internal">
        <lane id=":C_8_0" index="0" disallow="pedestrian bicycle" speed="13.89" length="25.80" shape="13.90,4.80 8.90,4.80 -11.90,4.60"/>
    </edge>
    <edge id=":C_9" function="internal">
        <lane id=":C_9_0" index="0" disallow="pedestrian bicycle" speed="10.34" length="13.36" shape="13.90,1.60 8.90,1.60 2.99,0.94 0.80,-0.08"/>
    </edge>
    <edge id=":C_23" function="internal">
        <lane id=":C_23_0" index="0" allow="bicycle" speed="5.82" length="4.90" width="2.00" shape="6.46,7.90 5.37,8.52 4.49,9.93 4.20,11.90"/>
    </edge>
    <edge id=":C_24" function="internal">
        <lane id=":C_24_0" index="0" disallow="pedestrian bicycle" speed="8.61" length="8.14" shape="5.49,5.37 3.42,6.57 2.06,8.79 1.60,11.90"/>
    </edge>
    <edge id=":C_25" function="internal">
        <lane id=":C_25_0" index="0" disallow="pedestrian bicycle" speed="10.34" length="11.05" shape="0.80,-0.08 -1.22,-1.02 -3.76,-4.31 -4.60,-8.90"/>
    </edge>
    <edge id=":C_10" function="internal">
        <lane id=":C_10_0" index="0" allow="bicycle" speed="5.82" length="2.51" width="2.00" shape="4.40,-8.90 4.68,-6.84 4.90,-6.46"/>
    </edge>
    <edge id=":C_11" function="internal">
        <lane id=":C_11_0" index="0" allow="bicycle" speed="13.89" length="20.80" width="2.00" shape="4.40,-8.90 4.20,11.90"/>
    </edge>
    <edge id=":C_12" function="internal">
        <lane id=":C_12_0" index="0" disallow="pedestrian bicycle" speed="8.61" length="8.47" shape="1.80,-13.90 1.80,-8.90 2.24,-5.71 2.37,-5.49"/>
    </edge>
    <edge id=":C_13" function="internal">
        <lane id=":C_13_0" index="0" disallow="pedestrian bicycle" speed="13.89" length="25.80" shape="1.80,-13.90 1.80,-8.90 1.60,11.90"/>
    </edge>
    <edge id=":C_14" function="internal">
        <lane id=":C_14_0" index="0" disallow="pedestrian bicycle" speed="10.34" length="20.35" shape="-1.40,-13.90 -1.40,-8.90 -2.06,-2.99 -4.02,1.22 -7.31,3.76 -7.90,3.87"/>
    </edge>
    <edge id=":C_26" function="internal">
        <lane id=":C_26_0" index="0" allow="bicycle" speed="5.82" length="4.90" width="2.00" shape="4.90,-6.46 5.52,-5.37 6.93,-4.49 8.90,-4.20"/>
    </edge>
    <edge id=":C_27" function="internal">
        <lane id=":C_27_0" index="0" disallow="pedestrian bicycle" speed="8.61" length="8.14" shape="2.37,-5.49 3.57,-3.42 5.79,-2.06 8.90,-1.60"/>
    </edge>
    <edge id=":C_28" function="internal">
        <lane id=":C_28_0" index="0" disallow="pedestrian bicycle" speed="10.34" length="4.07" shape="-7.90,3.87 -11.90,4.60"/>
    </edge>
    <edge id=":C_15" function="internal">
        <lane id=":C_15_0" index="0" allow="bicycle" speed="5.82" length="2.51" width="2.00" shape="-11.90,-4.40 -9.84,-4.68 -9.46,-4.90"/>
    </edge>
    <edge id=":C_16" function="internal">
        <lane id=":C_16_0" index="0" allow="bicycle" speed="13.89" length="20.80" width="2.00" shape="-11.90,-4.40 8.90,-4.20"/>
    </edge>
    <edge id=":C_17" function="internal">
        <lane id=":C_17_0" index="0" disallow="pedestrian bicycle" speed="8.61" length="8.47" shape="-16.90,-1.80 -11.90,-1.80 -8.71,-2.24 -8.49,-2.37"/>
    </edge>
    <edge id=":C_18" function="internal">
        <lane id=":C_18_0" index="0" disallow="pedestrian bicycle" speed="13.89" length="25.80" shape="-16.90,-1.80 -11.90,-1.80 8.90,-1.60"/>
    </edge>
    <edge id=":C_19" function="internal">
        <lane id=":C_19_0" index="0" disallow="pedestrian bicycle" speed="10.34" length="13.36" shape="-16.90,1.40 -11.90,1.40 -5.99,2.06 -3.80,3.08"/>
    </edge>
    <edge id=":C_29" function="internal">
        <lane id=":C_29_0" index="0" allow="bicycle" speed="5.82" length="4.90" width="2.00" shape="-9.46,-4.90 -8.38,-5.52 -7.49,-6.93 -7.20,-8.90"/>
    </edge>
    <edge id=":C_30" function="internal">
        <lane id=":C_30_0" index="0" disallow="pedestrian bicycle" speed="8.61" length="8.14" shape="-8.49,-2.37 -6.42,-3.57 -5.06,-5.79 -4.60,-8.90"/>
    </edge>
    <edge id=":C_31" function="internal">
        <lane id=":C_31_0" index="0" disallow="pedestrian bicycle" speed="10.34" length="11.05" shape="-3.80,3.08 -1.78,4.02 0.76,7.31 1.60,11.90"/>
    </edge>
    <edge id=":C_c0" function="crossing" crossingEdges="CN NC">
        <lane id=":C_c0_0" index="0" allow="pedestrian" speed="1.00" length="13.60" width="4.00" shape="5.20,9.90 -8.40,9.90"/>
    </edge>
    <edge id=":C_c1" function="crossing" crossingEdges="CE EC">
        <lane id=":C_c1_0" index="0" allow="pedestrian" speed="1.00" length="13.60" width="4.00" shape="6.90,-5.20 6.90,8.40"/>
    </edge>
    <edge id=":C_c2" function="crossing" crossingEdges="CS SC">
        <lane id=":C_c2_0" index="0" allow="pedestrian" speed="1.00" length="13.60" width="4.00" shape="-8.20,-6.90 5.40,-6.90"/>
    </edge>
    <edge id=":C_c3" function="crossing" crossingEdges="CW WC">
        <lane id=":C_c3_0" index="0" allow="pedestrian" speed="1.00" length="13.60" width="4.00" shape="-9.90,8.20 -9.90,-5.40"/>
    </edge>
    <edge id=":C_w0" function="walkingarea">
        <lane id=":C_w0_0" index="0" allow="pedestrian" speed="1.00" length="2.95" width="4.00" shape="-11.90,8.20 -11.90,10.20 -10.40,11.90 -8.40,11.90 -8.50,10.77 -8.79,9.84 -9.28,9.13 -9.96,8.61 -10.83,8.30"/>
    </edge>
    <edge id=":C_w1" function="walkingarea">
        <lane id=":C_w1_0" index="0" allow="pedestrian" speed="1.00" length="2.95" width="4.00" shape="5.20,11.90 7.20,11.90 8.90,10.40 8.90,8.40 7.77,8.50 6.84,8.79 6.12,9.28 5.61,9.96 5.30,10.83"/>
    </edge>
    <edge id=":C_w2" function="walkingarea">
        <lane id=":C_w2_0" index="0" allow="pedestrian" speed="1.00" length="2.95" width="4.00" shape="8.90,-5.20 8.90,-7.20 7.40,-8.90 5.40,-8.90 5.50,-7.77 5.79,-6.84 6.27,-6.12 6.96,-5.61 7.83,-5.30"/>
    </edge>
    <edge id=":C_w3" function="walkingarea">
        <lane id=":C_w3_0" index="0" allow="pedestrian" speed="1.00" length="2.95" width="4.00" shape="-8.20,-8.90 -10.20,-8.90 -11.90,-7.40 -11.90,-5.40 -10.77,-5.50 -9.84,-5.79 -9.13,-6.27 -8.61,-6.96 -8.30,-7.83"/>
    </edge>
    <edge id=":E0_w0" function="walkingarea">
        <lane id=":E0_w0_0" index="0" allow="pedestrian" speed="1.00" length="15.40" width="2.00" shape="200.00,8.20 200.00,10.20 200.00,-7.20 200.00,-5.20"/>
    </edge>
    <edge id=":E1_0" function="internal">
        <lane id=":E1_0_0" index="0" allow="bicycle" speed="13.89" length="8.24" width="2.00" shape="54.00,7.20 46.00,7.40"/>
        <lane id=":E1_0_1" index="1" disallow="pedestrian bicycle" speed="13.89" length="8.24" shape="54.00,4.60 46.00,4.80"/>
        <lane id=":E1_0_2" index="2" disallow="pedestrian bicycle" speed="13.89" length="8.24" shape="54.00,4.60 51.55,4.13 50.00,3.10 48.45,2.07 46.00,1.60"/>
    </edge>
    <edge id=":E1_w0" function="walkingarea">
        <lane id=":E1_w0_0" index="0" allow="pedestrian" speed="1.00" length="8.00" width="2.00" shape="46.00,8.40 46.00,10.40 54.00,10.20 54.00,8.20"/>
    </edge>
    <edge id=":N0_0" function="internal">
        <lane id=":N0_0_0" index="0" disallow="pedestrian bicycle" speed="4.66" length="9.05" shape="1.60,200.00 0.05,202.32 -1.50,203.10 -3.05,202.32 -4.60,200.00"/>
    </edge>
    <edge id=":N0_w0" function="walkingarea">
        <lane id=":N0_w0_0" index="0" allow="pedestrian" speed="1.00" length="15.40" width="2.00" shape="-8.20,200.00 -10.20,200.00 7.20,200.00 5.20,200.00"/>
    </edge>
    <edge id=":N1_0" function="internal">
        <lane id=":N1_0_0" index="0" allow="bicycle" speed="13.89" length="8.24" width="2.00" shape="-7.20,54.00 -7.40,46.00"/>
        <lane id=":N1_0_1" index="1" disallow="pedestrian bicycle" speed="13.89" length="8.24" shape="-4.60,54.00 -4.80,46.00"/>
        <lane id=":N1_0_2" index="2" disallow="pedestrian bicycle" speed="13.89" length="8.24" shape="-4.60,54.00 -4.13,51.55 -3.10,50.00 -2.07,48.45 -1.60,46.00"/>
    </edge>
    <edge id=":N1_w0" function="walkingarea">
        <lane id=":N1_w0_0" index="0" allow="pedestrian" speed="1.00" length="8.00" width="2.00" shape="-8.40,46.00 -10.40,46.00 -10.20,54.00 -8.20,54.00"/>
    </edge>
    <edge id=":S0_0" function="internal">
        <lane id=":S0_0_0" index="0" disallow="pedestrian bicycle" speed="4.66" length="9.05" shape="-4.60,-200.00 -3.05,-202.32 -1.50,-203.10 0.05,-202.32 1.60,-200.00"/>
    </edge>
    <edge id=":S0_w0" function="walkingarea">
        <lane id=":S0_w0_0" index="0" allow="pedestrian" speed="1.00" length="15.40" width="2.00" shape="5.20,-200.00 7.20,-200.00 -10.20,-200.00 -8.20,-200.00"/>
    </edge>
    <edge id=":S1_0" function="internal">
        <lane id=":S1_0_0" index="0" allow="bicycle" speed="13.89" length="8.24" width="2.00" shape="4.20,-54.00 4.40,-46.00"/>
        <lane id=":S1_0_1" index="1" disallow="pedestrian bicycle" speed="13.89" length="8.24" shape="1.60,-54.00 1.80,-46.00"/>
        <lane id=":S1_0_2" index="2" disallow="pedestrian bicycle" speed="13.89" length="8.24" shape="1.60,-54.00 1.13,-51.55 0.10,-50.00 -0.93,-48.45 -1.40,-46.00"/>
    </edge>
    <edge id=":S1_w0" function="walkingarea">
        <lane id=":S1_w0_0" index="0" allow="pedestrian" speed="1.00" length="8.00" width="2.00" shape="5.40,-46.00 7.40,-46.00 7.20,-54.00 5.20,-54.00"/>
    </edge>
    <edge id=":W0_0" function="internal">
        <lane id=":W0_0_0" index="0" disallow="pedestrian bicycle" speed="4.66" length="9.05" shape="-200.00,4.60 -202.32,3.05 -203.10,1.50 -202.32,-0.05 -200.00,-1.60"/>
    </edge>
    <edge id=":W0_w0" function="walkingarea">
        <lane id=":W0_w0_0" index="0" allow="pedestrian" speed="1.00" length="15.40" width="2.00" shape="-200.00,-5.20 -200.00,-7.20 -200.00,10.20 -200.00,8.20"/>
    </edge>
    <edge id=":W1_0" function="internal">
        <lane id=":W1_0_0" index="0" allow="bicycle" speed="13.89" length="8.24" width="2.00" shape="-54.00,-4.20 -46.00,-4.40"/>
        <lane id=":W1_0_1" index="1" disallow="pedestrian bicycle" speed="13.89" length="8.24" shape="-54.00,-1.60 -46.00,-1.80"/>
        <lane id=":W1_0_2" index="2" disallow="pedestrian bicycle" speed="13.89" length="8.24" shape="-54.00,-1.60 -51.55,-1.13 -50.00,-0.10 -48.45,0.93 -46.00,1.40"/>
    </edge>
    <edge id=":W1_w0" function="walkingarea">
        <lane id=":W1_w0_0" index="0" allow="pedestrian" speed="1.00" length="8.00" width="2.00" shape="-46.00,-5.40 -46.00,-7.40 -54.00,-7.20 -54.00,-5.20"/>
    </edge>

    <edge id="CE" from="C" to="E0" priority="-1">
        <lane id="CE_0" index="0" allow="pedestrian" speed="13.89" length="191.10" width="2.00" shape="8.90,-6.20 200.00,-6.20"/>
        <lane id="CE_1" index="1" allow="bicycle" speed="13.89" length="191.10" width="2.00" shape="8.90,-4.20 200.00,-4.20"/>
        <lane id="CE_2" index="2" disallow="pedestrian bicycle" speed="13.89" length="191.10" shape="8.90,-1.60 200.00,-1.60"/>
    </edge>
    <edge id="CN" from="C" to="N0" priority="-1" length="188.10">
        <lane id="CN_0" index="0" allow="pedestrian" speed="13.89" length="188.10" width="2.00" shape="6.20,11.90 6.20,200.00"/>
        <lane id="CN_1" index="1" allow="bicycle" speed="13.89" length="188.10" width="2.00" shape="4.20,11.90 4.20,200.00"/>
        <lane id="CN_2" index="2" disallow="pedestrian bicycle" speed="13.89" length="188.10" shape="1.60,11.90 1.60,200.00"/>
    </edge>
    <edge id="CS" from="C" to="S0" priority="-1" shape="-3.00,0.00 -3.00,-200.00">
        <lane id="CS_0" index="0" allow="pedestrian" speed="13.89" length="191.10" width="2.00" shape="-9.20,-8.90 -9.20,-200.00"/>
        <lane id="CS_1" index="1" allow="bicycle" speed="13.89" length="191.10" width="2.00" shape="-7.20,-8.90 -7.20,-200.00"/>
        <lane id="CS_2" index="2" disallow="pedestrian bicycle" speed="13.89" length="191.10" shape="-4.60,-8.90 -4.60,-200.00"/>
    </edge>
    <edge id="CW" from="C" to="W0" priority="-1" shape="0.00,3.00 -200.00,3.00">
        <lane id="CW_0" index="0" allow="pedestrian" speed="13.89" length="188.10" width="2.00" shape="-11.90,9.20 -200.00,9.20"/>
        <lane id="CW_1" index="1" allow="bicycle" speed="13.89" length="188.10" width="2.00" shape="-11.90,7.20 -200.00,7.20"/>
        <lane id="CW_2" index="2" disallow="pedestrian bicycle" speed="13.89" length="188.10" shape="-11.90,4.60 -200.00,4.60"/>
    </edge>
    <edge id="EC" from="E1" to="C" priority="-1">
        <lane id="EC_0" index="0" allow="pedestrian" speed="13.89" length="34.60" width="2.00" shape="46.00,9.40 8.90,9.40"/>
        <lane id="EC_1" index="1" allow="bicycle" speed="13.89" length="34.60" width="2.00" shape="46.00,7.40 8.90,7.40"/>
        <lane id="EC_2" index="2" disallow="pedestrian bicycle" speed="13.89" length="34.60" endOffset="5.00" shape="46.00,4.80 13.90,4.80"/>
        <lane id="EC_3" index="3" disallow="pedestrian bicycle" speed="13.89" length="34.60" endOffset="5.00" shape="46.00,1.60 13.90,1.60"/>
    </edge>
    <edge id="EE" from="E0" to="E1" priority="-1" shape="200.00,3.00 50.00,3.00">
        <lane id="EE_0" index="0" allow="pedestrian" speed="13.89" length="146.00" width="2.00" shape="200.00,9.20 54.00,9.20"/>
        <lane id="EE_1" index="1" allow="bicycle" speed="13.89" length="146.00" width="2.00" shape="200.00,7.20 54.00,7.20"/>
        <lane id="EE_2" index="2" disallow="pedestrian bicycle" speed="13.89" length="146.00" shape="200.00,4.60 54.00,4.60"/>
    </edge>
    <edge id="NC" from="N1" to="C" priority="-1">
        <lane id="NC_0" index="0" allow="pedestrian" speed="13.89" length="31.60" width="2.00" shape="-9.40,46.00 -9.40,11.90"/>
        <lane id="NC_1" index="1" allow="bicycle" speed="13.89" length="31.60" width="2.00" shape="-7.40,46.00 -7.40,11.90"/>
        <lane id="NC_2" index="2" disallow="pedestrian bicycle" speed="13.89" length="31.60" endOffset="5.00" shape="-4.80,46.00 -4.80,16.90"/>
        <lane id="NC_3" index="3" disallow="pedestrian bicycle" speed="13.89" length="31.60" endOffset="5.00" shape="-1.60,46.00 -1.60,16.90"/>
    </edge>
    <edge id="NN" from="N0" to="N1" priority="-1" length="188.10" shape="-3.00,200.00 -3.00,50.00">
        <lane id="NN_0" index="0" allow="pedestrian" speed="13.89" length="188.10" width="2.00" shape="-9.20,200.00 -9.20,54.00"/>
        <lane id="NN_1" index="1" allow="bicycle" speed="13.89" length="188.10" width="2.00" shape="-7.20,200.00 -7.20,54.00"/>
        <lane id="NN_2" index="2" disallow="pedestrian bicycle" speed="13.89" length="188.10" shape="-4.60,200.00 -4.60,54.00"/>
    </edge>
    <edge id="SC" from="S1" to="C" priority="-1" shape="-3.00,-50.00 -3.00,0.00">
        <lane id="SC_0" index="0" allow="pedestrian" speed="13.89" length="34.60" width="2.00" shape="6.40,-46.00 6.40,-8.90"/>
        <lane id="SC_1" index="1" allow="bicycle" speed="13.89" length="34.60" width="2.00" shape="4.40,-46.00 4.40,-8.90"/>
        <lane id="SC_2" index="2" disallow="pedestrian bicycle" speed="13.89" length="34.60" endOffset="5.00" shape="1.80,-46.00 1.80,-13.90"/>
        <lane id="SC_3" index="3" disallow="pedestrian bicycle" speed="13.89" length="34.60" endOffset="5.00" shape="-1.40,-46.00 -1.40,-13.90"/>
    </edge>
    <edge id="SS" from="S0" to="S1" priority="-1">
        <lane id="SS_0" index="0" allow="pedestrian" speed="13.89" length="146.00" width="2.00" shape="6.20,-200.00 6.20,-54.00"/>
        <lane id="SS_1" index="1" allow="bicycle" speed="13.89" length="146.00" width="2.00" shape="4.20,-200.00 4.20,-54.00"/>
        <lane id="SS_2" index="2" disallow="pedestrian bicycle" speed="13.89" length="146.00" shape="1.60,-200.00 1.60,-54.00"/>
    </edge>
    <edge id="WC" from="W1" to="C" priority="-1" shape="-50.00,3.00 0.00,3.00">
        <lane id="WC_0" index="0" allow="pedestrian" speed="13.89" length="31.60" width="2.00" shape="-46.00,-6.40 -11.90,-6.40"/>
        <lane id="WC_1" index="1" allow="bicycle" speed="13.89" length="31.60" width="2.00" shape="-46.00,-4.40 -11.90,-4.40"/>
        <lane id="WC_2" index="2" disallow="pedestrian bicycle" speed="13.89" length="31.60" endOffset="5.00" shape="-46.00,-1.80 -16.90,-1.80"/>
        <lane id="WC_3" index="3" disallow="pedestrian bicycle" speed="13.89" length="31.60" endOffset="5.00" shape="-46.00,1.40 -16.90,1.40"/>
    </edge>
    <edge id="WW" from="W0" to="W1" priority="-1">
        <lane id="WW_0" index="0" allow="pedestrian" speed="13.89" length="146.00" width="2.00" shape="-200.00,-6.20 -54.00,-6.20"/>
        <lane id="WW_1" index="1" allow="bicycle" speed="13.89" length="146.00" width="2.00" shape="-200.00,-4.20 -54.00,-4.20"/>
        <lane id="WW_2" index="2" disallow="pedestrian bicycle" speed="13.89" length="146.00" shape="-200.00,-1.60 -54.00,-1.60"/>
    </edge>

    <tlLogic id="C" type="static" programID="0" offset="0">
        <phase duration="28" state="gGgGrrrrrrgGgGrrrrrrrGrG"/>
        <phase duration="6"  state="rrrrGrrrrrrrrrGrrrrrrrrr"/>
        <phase duration="28" state="rrrrrgGgGgrrrrrgGgGgGrGr"/>
        <phase duration="6"  state="rrrrrrrrrGrrrrrrrrrGrrrr"/>
    </tlLogic>

    <junction id="C" type="traffic_light" x="0.00" y="0.00" incLanes="NC_0 NC_1 NC_2 NC_3 EC_0 EC_1 EC_2 EC_3 SC_0 SC_1 SC_2 SC_3 WC_0 WC_1 WC_2 WC_3 :C_w1_0 :C_w2_0 :C_w3_0 :C_w0_0" intLanes=":C_20_0 :C_1_0 :C_21_0 :C_3_0 :C_22_0 :C_23_0 :C_6_0 :C_24_0 :C_8_0 :C_25_0 :C_26_0 :C_11_0 :C_27_0 :C_13_0 :C_28_0 :C_29_0 :C_16_0 :C_30_0 :C_18_0 :C_31_0 :C_c0_0 :C_c1_0 :C_c2_0 :C_c3_0" shape="-10.40,11.90 7.20,11.90 7.39,11.07 7.62,10.77 7.96,10.57 8.38,10.44 8.90,10.40 8.90,-7.20 8.07,-7.39 7.77,-7.62 7.57,-7.96 7.44,-8.38 7.40,-8.90 -10.20,-8.90 -10.39,-8.07 -10.62,-7.77 -10.96,-7.57 -11.38,-7.44 -11.90,-7.40 -11.90,10.20 -11.07,10.39 -10.77,10.62 -10.57,10.96 -10.44,11.38">
        <request index="0"  response="100100000000000000000000" foes="100100000000000001000000" cont="1"/>
        <request index="1"  response="010110101100000000000000" foes="010111111100000101000100" cont="0"/>
        <request index="2"  response="100100000100000000000010" foes="100100000100000101000010" cont="1"/>
        <request index="3"  response="010110100100001000000000" foes="010111110100001101000000" cont="0"/>
        <request index="4"  response="001110000011101000000000" foes="001111000011101101000000" cont="1"/>
        <request index="5"  response="001100000000100000000000" foes="001100000000100000000000" cont="1"/>
        <request index="6"  response="101000000010100000011111" foes="101010000010100010011111" cont="0"/>
        <request index="7"  response="001100000010100001000000" foes="001110000010100001000000" cont="1"/>
        <request index="8"  response="101000000110100000011110" foes="101010000110100000011110" cont="0"/>
        <request index="9"  response="011001110110100000011000" foes="011001110110100000011000" cont="1"/>
        <request index="10" response="011000000000000000000000" foes="011000010000000000000000" cont="1"/>
        <request index="11" response="010100000000001010110000" foes="010101010001001111110000" cont="0"/>
        <request index="12" response="011000000000100000010000" foes="011001010000100000010000" cont="1"/>
        <request index="13" response="010110000000001010010000" foes="010111010000001111010000" cont="0"/>
        <request index="14" response="110010000000001000001110" foes="110011010000001100001110" cont="1"/>
        <request index="15" response="110000000000000000000010" foes="110000000000000000000010" cont="1"/>
        <request index="16" response="101000000111110000001010" foes="101000100111111000001010" cont="0"/>
        <request index="17" response="110000010000000000001010" foes="110000010000001000001010" cont="1"/>
        <request index="18" response="101000000111100000011010" foes="101000000111101000011010" cont="0"/>
        <request index="19" response="100100000110000111011010" foes="100100000110000111011010" cont="1"/>
        <request index="20" response="000000000000000000000000" foes="000010000010100010111111" cont="0"/>
        <request index="21" response="000000000000000000000000" foes="000001010001011111110000" cont="0"/>
        <request index="22" response="000000000000000000000000" foes="000000101111111000001010" cont="0"/>
        <request index="23" response="000000000000000000000000" foes="000011111100000101000101" cont="0"/>
    </junction>
    <junction id="E0" type="dead_end" x="200.00" y="0.00" incLanes="CE_0 CE_1 CE_2" intLanes="" shape="200.00,3.00 200.00,-7.20 200.00,0.00"/>
    <junction id="E1" type="priority" x="50.00" y="0.00" incLanes="EE_0 EE_1 EE_2" intLanes=":E1_0_0 :E1_0_1 :E1_0_2" shape="54.00,10.20 54.00,3.00 50.98,2.22 49.02,0.78 47.78,0.22 46.00,0.00 46.00,10.40">
        <request index="0" response="000" foes="000" cont="0"/>
        <request index="1" response="000" foes="000" cont="0"/>
        <request index="2" response="000" foes="000" cont="0"/>
    </junction>
    <junction id="N0" type="unregulated" x="0.00" y="200.00" incLanes="CN_0 CN_1 CN_2" intLanes=":N0_0_0" shape="-3.00,200.00 7.20,200.00 0.00,200.00"/>
    <junction id="N1" type="priority" x="0.00" y="50.00" incLanes="NN_0 NN_1 NN_2" intLanes=":N1_0_0 :N1_0_1 :N1_0_2" shape="-10.20,54.00 -3.00,54.00 -2.22,50.98 -0.78,49.02 -0.22,47.78 0.00,46.00 -10.40,46.00">
        <request index="0" response="000" foes="000" cont="0"/>
        <request index="1" response="000" foes="000" cont="0"/>
        <request index="2" response="000" foes="000" cont="0"/>
    </junction>
    <junction id="S0" type="unregulated" x="0.00" y="-200.00" incLanes="CS_0 CS_1 CS_2" intLanes=":S0_0_0" shape="0.00,-200.00 -10.20,-200.00 -3.00,-200.00"/>
    <junction id="S1" type="priority" x="0.00" y="-50.00" incLanes="SS_0 SS_1 SS_2" intLanes=":S1_0_0 :S1_0_1 :S1_0_2" shape="-3.00,-46.00 7.40,-46.00 7.20,-54.00 0.00,-54.00 -0.78,-50.98 -2.22,-49.02 -2.78,-47.78">
        <request index="0" response="000" foes="000" cont="0"/>
        <request index="1" response="000" foes="000" cont="0"/>
        <request index="2" response="000" foes="000" cont="0"/>
    </junction>
    <junction id="W0" type="unregulated" x="-200.00" y="0.00" incLanes="CW_0 CW_1 CW_2" intLanes=":W0_0_0" shape="-200.00,0.00 -200.00,10.20 -200.00,3.00"/>
    <junction id="W1" type="priority" x="-50.00" y="0.00" incLanes="WW_0 WW_1 WW_2" intLanes=":W1_0_0 :W1_0_1 :W1_0_2" shape="-46.00,3.00 -46.00,-7.40 -54.00,-7.20 -54.00,0.00 -50.98,0.78 -49.02,2.22 -47.78,2.78">
        <request index="0" response="000" foes="000" cont="0"/>
        <request index="1" response="000" foes="000" cont="0"/>
        <request index="2" response="000" foes="000" cont="0"/>
    </junction>

    <junction id=":C_20_0" type="internal" x="-7.90" y="9.46" incLanes=":C_0_0" intLanes=":C_6_0 :C_8_0 :C_14_0 :C_c0_0 :C_c3_0"/>
    <junction id=":C_21_0" type="internal" x="-5.37" y="8.49" incLanes=":C_2_0 NC_1" intLanes=":C_1_0 :C_6_0 :C_8_0 :C_14_0 :C_c0_0 :C_c3_0"/>
    <junction id=":C_22_0" type="internal" x="4.90" y="-0.87" incLanes=":C_4_0" intLanes=":C_6_0 :C_8_0 :C_9_0 :C_10_0 :C_11_0 :C_12_0 :C_13_0 :C_16_0 :C_18_0 :C_19_0 :C_c0_0 :C_c1_0"/>
    <junction id=":C_23_0" type="internal" x="6.46" y="7.90" incLanes=":C_5_0" intLanes=":C_11_0 :C_13_0 :C_19_0 :C_c0_0 :C_c1_0"/>
    <junction id=":C_24_0" type="internal" x="5.49" y="5.37" incLanes=":C_7_0 EC_1" intLanes=":C_6_0 :C_11_0 :C_13_0 :C_19_0 :C_c0_0 :C_c1_0"/>
    <junction id=":C_25_0" type="internal" x="0.80" y="-0.08" incLanes=":C_9_0 WC_1 WC_2" intLanes=":C_1_0 :C_3_0 :C_4_0 :C_11_0 :C_13_0 :C_14_0 :C_15_0 :C_16_0 :C_17_0 :C_18_0 :C_c1_0 :C_c2_0"/>
    <junction id=":C_26_0" type="internal" x="4.90" y="-6.46" incLanes=":C_10_0" intLanes=":C_4_0 :C_16_0 :C_18_0 :C_c1_0 :C_c2_0"/>
    <junction id=":C_27_0" type="internal" x="2.37" y="-5.49" incLanes=":C_12_0 SC_1" intLanes=":C_4_0 :C_11_0 :C_16_0 :C_18_0 :C_c1_0 :C_c2_0"/>
    <junction id=":C_28_0" type="internal" x="-7.90" y="3.87" incLanes=":C_14_0" intLanes=":C_0_0 :C_1_0 :C_2_0 :C_3_0 :C_6_0 :C_8_0 :C_9_0 :C_16_0 :C_18_0 :C_19_0 :C_c2_0 :C_c3_0"/>
    <junction id=":C_29_0" type="internal" x="-9.46" y="-4.90" incLanes=":C_15_0" intLanes=":C_1_0 :C_3_0 :C_9_0 :C_c2_0 :C_c3_0"/>
    <junction id=":C_30_0" type="internal" x="-8.49" y="-2.37" incLanes=":C_17_0 WC_1" intLanes=":C_1_0 :C_3_0 :C_9_0 :C_16_0 :C_c2_0 :C_c3_0"/>
    <junction id=":C_31_0" type="internal" x="-3.80" y="3.08" incLanes=":C_19_0 EC_1 EC_2" intLanes=":C_1_0 :C_3_0 :C_4_0 :C_5_0 :C_6_0 :C_7_0 :C_8_0 :C_11_0 :C_13_0 :C_14_0 :C_c0_0 :C_c3_0"/>

    <connection from="CN" to="NN" fromLane="2" toLane="2" via=":N0_0_0" dir="t" state="M"/>
    <connection from="CS" to="SS" fromLane="2" toLane="2" via=":S0_0_0" dir="t" state="M"/>
    <connection from="CW" to="WW" fromLane="2" toLane="2" via=":W0_0_0" dir="t" state="M"/>
    <connection from="EC" to="CN" fromLane="1" toLane="1" via=":C_5_0" tl="C" linkIndex="5" dir="r" state="o"/>
    <connection from="EC" to="CW" fromLane="1" toLane="1" via=":C_6_0" tl="C" linkIndex="6" dir="s" state="o"/>
    <connection from="EC" to="CN" fromLane="2" toLane="2" via=":C_7_0" tl="C" linkIndex="7" dir="r" state="o"/>
    <connection from="EC" to="CW" fromLane="2" toLane="2" via=":C_8_0" tl="C" linkIndex="8" dir="s" state="o"/>
    <connection from="EC" to="CS" fromLane="3" toLane="2" via=":C_9_0" tl="C" linkIndex="9" dir="l" state="o"/>
    <connection from="EE" to="EC" fromLane="1" toLane="1" via=":E1_0_0" dir="s" state="M"/>
    <connection from="EE" to="EC" fromLane="2" toLane="2" via=":E1_0_1" dir="s" state="M"/>
    <connection from="EE" to="EC" fromLane="2" toLane="3" via=":E1_0_2" dir="s" state="M"/>
    <connection from="NC" to="CW" fromLane="1" toLane="1" via=":C_0_0" tl="C" linkIndex="0" dir="r" state="o"/>
    <connection from="NC" to="CS" fromLane="1" toLane="1" via=":C_1_0" tl="C" linkIndex="1" dir="s" state="o"/>
    <connection from="NC" to="CW" fromLane="2" toLane="2" via=":C_2_0" tl="C" linkIndex="2" dir="r" state="o"/>
    <connection from="NC" to="CS" fromLane="2" toLane="2" via=":C_3_0" tl="C" linkIndex="3" dir="s" state="o"/>
    <connection from="NC" to="CE" fromLane="3" toLane="2" via=":C_4_0" tl="C" linkIndex="4" dir="l" state="o"/>
    <connection from="NN" to="NC" fromLane="1" toLane="1" via=":N1_0_0" dir="s" state="M"/>
    <connection from="NN" to="NC" fromLane="2" toLane="2" via=":N1_0_1" dir="s" state="M"/>
    <connection from="NN" to="NC" fromLane="2" toLane="3" via=":N1_0_2" dir="s" state="M"/>